
Note: No compatibility mode selected!


Circuit: ** sch_path: /home/bmott/ttsky25b_tiny_chaos/xsch/tb/adc/tt_um_3bit_flash_adc_dc_corners.sch

Doing analysis at TEMP = 27.000000 and TNOM = 27.000000

Using SPARSE 1.3 as Direct Linear Solver
 Reference value :  0.00000e+00 Reference value :  1.00000e-02 Reference value :  3.00000e-02 Reference value :  4.00000e-02 Reference value :  5.00000e-02 Reference value :  6.00000e-02 Reference value :  7.00000e-02 Reference value :  8.00000e-02 Reference value :  9.00000e-02 Reference value :  1.00000e-01 Reference value :  1.10000e-01 Reference value :  1.30000e-01 Reference value :  1.40000e-01 Reference value :  1.50000e-01 Reference value :  1.60000e-01 Reference value :  1.70000e-01 Reference value :  1.80000e-01 Reference value :  1.90000e-01 Reference value :  2.00000e-01 Reference value :  2.10000e-01 Reference value :  2.20000e-01 Reference value :  2.30000e-01 Reference value :  2.50000e-01 Reference value :  2.60000e-01 Reference value :  2.70000e-01 Reference value :  2.80000e-01 Reference value :  2.90000e-01 Reference value :  3.00000e-01 Reference value :  3.10000e-01 Reference value :  3.20000e-01 Reference value :  3.30000e-01 Reference value :  3.40000e-01 Reference value :  3.50000e-01 Reference value :  3.60000e-01 Reference value :  3.70000e-01 Reference value :  3.80000e-01 Reference value :  3.90000e-01 Reference value :  4.00000e-01 Reference value :  4.10000e-01 Reference value :  4.20000e-01 Reference value :  4.30000e-01 Reference value :  4.50000e-01 Reference value :  4.60000e-01 Reference value :  4.70000e-01 Reference value :  4.80000e-01 Reference value :  4.90000e-01 Reference value :  5.00000e-01 Reference value :  5.10000e-01 Reference value :  5.20000e-01 Reference value :  5.30000e-01 Reference value :  5.40000e-01 Reference value :  5.50000e-01 Reference value :  5.60000e-01 Reference value :  5.70000e-01 Reference value :  5.90000e-01 Reference value :  6.00000e-01 Reference value :  6.10000e-01 Reference value :  6.20000e-01 Reference value :  6.30000e-01 Reference value :  6.40000e-01 Reference value :  6.50000e-01 Reference value :  7.50000e-01 Reference value :  7.60000e-01 Reference value :  7.80000e-01 Reference value :  8.20000e-01 Reference value :  9.00000e-01 Reference value :  9.10000e-01 Reference value :  9.20000e-01 Reference value :  9.40000e-01 Reference value :  9.50000e-01
No. of Data Rows : 101
Note: Simulation executed from .control section 


Note: No compatibility mode selected!


Circuit: ** sch_path: /home/bmott/ttsky25b_tiny_chaos/xsch/tb/adc/tt_um_3bit_flash_adc_dc_corners.sch

Doing analysis at TEMP = 27.000000 and TNOM = 27.000000

Using SPARSE 1.3 as Direct Linear Solver
 Reference value :  0.00000e+00 Reference value :  1.00000e-02 Reference value :  3.00000e-02 Reference value :  4.00000e-02 Reference value :  5.00000e-02 Reference value :  6.00000e-02 Reference value :  7.00000e-02 Reference value :  8.00000e-02 Reference value :  9.00000e-02 Reference value :  1.00000e-01 Reference value :  1.10000e-01 Reference value :  1.30000e-01 Reference value :  1.40000e-01 Reference value :  1.50000e-01 Reference value :  1.60000e-01 Reference value :  1.70000e-01 Reference value :  1.80000e-01 Reference value :  1.90000e-01 Reference value :  2.00000e-01 Reference value :  2.10000e-01 Reference value :  2.20000e-01 Reference value :  2.30000e-01 Reference value :  2.40000e-01 Reference value :  2.50000e-01 Reference value :  2.60000e-01 Reference value :  2.70000e-01 Reference value :  2.80000e-01 Reference value :  2.90000e-01 Reference value :  3.00000e-01 Reference value :  3.10000e-01 Reference value :  3.20000e-01 Reference value :  3.30000e-01 Reference value :  3.40000e-01 Reference value :  3.50000e-01 Reference value :  3.60000e-01 Reference value :  3.70000e-01 Reference value :  3.80000e-01 Reference value :  4.00000e-01 Reference value :  4.10000e-01 Reference value :  4.20000e-01 Reference value :  4.30000e-01 Reference value :  4.40000e-01 Reference value :  4.50000e-01 Reference value :  4.60000e-01 Reference value :  4.70000e-01 Reference value :  4.80000e-01 Reference value :  4.90000e-01 Reference value :  5.00000e-01 Reference value :  5.10000e-01 Reference value :  5.20000e-01 Reference value :  5.30000e-01 Reference value :  5.40000e-01 Reference value :  5.50000e-01 Reference value :  5.60000e-01 Reference value :  5.70000e-01 Reference value :  5.90000e-01 Reference value :  6.00000e-01 Reference value :  6.10000e-01 Reference value :  6.20000e-01 Reference value :  6.30000e-01 Reference value :  6.40000e-01 Reference value :  6.50000e-01 Reference value :  6.60000e-01 Reference value :  7.00000e-01 Reference value :  7.30000e-01 Reference value :  7.50000e-01 Reference value :  7.60000e-01 Reference value :  7.70000e-01 Reference value :  7.80000e-01 Reference value :  7.90000e-01 Reference value :  8.00000e-01 Reference value :  9.40000e-01
No. of Data Rows : 101
Note: Simulation executed from .control section 


Note: No compatibility mode selected!


Circuit: ** sch_path: /home/bmott/ttsky25b_tiny_chaos/xsch/tb/adc/tt_um_3bit_flash_adc_dc_corners.sch

Doing analysis at TEMP = 27.000000 and TNOM = 27.000000

Using SPARSE 1.3 as Direct Linear Solver
 Reference value :  0.00000e+00 Reference value :  1.00000e-02 Reference value :  2.00000e-02 Reference value :  3.00000e-02 Reference value :  4.00000e-02 Reference value :  5.00000e-02 Reference value :  6.00000e-02 Reference value :  7.00000e-02 Reference value :  8.00000e-02 Reference value :  9.00000e-02 Reference value :  1.00000e-01 Reference value :  1.10000e-01 Reference value :  1.20000e-01 Reference value :  1.40000e-01 Reference value :  1.50000e-01 Reference value :  1.60000e-01 Reference value :  1.70000e-01 Reference value :  1.80000e-01 Reference value :  1.90000e-01 Reference value :  2.00000e-01 Reference value :  2.10000e-01 Reference value :  2.20000e-01 Reference value :  2.30000e-01 Reference value :  2.40000e-01 Reference value :  2.60000e-01 Reference value :  2.70000e-01 Reference value :  2.80000e-01 Reference value :  2.90000e-01 Reference value :  3.00000e-01 Reference value :  3.10000e-01 Reference value :  3.20000e-01 Reference value :  3.30000e-01 Reference value :  3.40000e-01 Reference value :  3.50000e-01 Reference value :  3.60000e-01 Reference value :  3.70000e-01 Reference value :  3.80000e-01 Reference value :  3.90000e-01 Reference value :  4.00000e-01 Reference value :  4.10000e-01 Reference value :  4.20000e-01 Reference value :  4.30000e-01 Reference value :  4.50000e-01 Reference value :  4.60000e-01 Reference value :  4.70000e-01 Reference value :  4.80000e-01 Reference value :  4.90000e-01 Reference value :  5.00000e-01 Reference value :  5.10000e-01 Reference value :  5.20000e-01 Reference value :  5.30000e-01 Reference value :  5.40000e-01 Reference value :  5.50000e-01 Reference value :  5.60000e-01 Reference value :  5.70000e-01 Reference value :  5.80000e-01 Reference value :  5.90000e-01 Reference value :  6.10000e-01 Reference value :  6.20000e-01 Reference value :  6.30000e-01 Reference value :  6.40000e-01 Reference value :  6.50000e-01 Reference value :  6.60000e-01 Reference value :  6.70000e-01 Reference value :  6.80000e-01 Reference value :  6.90000e-01 Reference value :  7.00000e-01 Reference value :  7.10000e-01 Reference value :  7.20000e-01 Reference value :  7.40000e-01 Reference value :  7.50000e-01 Reference value :  7.60000e-01 Reference value :  7.70000e-01 Reference value :  7.80000e-01 Reference value :  7.90000e-01 Reference value :  8.00000e-01 Reference value :  8.10000e-01 Reference value :  8.20000e-01 Reference value :  8.30000e-01 Reference value :  8.40000e-01 Reference value :  9.00000e-01 Reference value :  9.10000e-01 Reference value :  9.20000e-01 Reference value :  9.30000e-01 Reference value :  9.40000e-01 Reference value :  9.60000e-01 Reference value :  9.70000e-01 Reference value :  9.80000e-01 Reference value :  1.00000e+00
No. of Data Rows : 101
Note: Simulation executed from .control section 


Note: No compatibility mode selected!


Circuit: ** sch_path: /home/bmott/ttsky25b_tiny_chaos/xsch/tb/adc/tt_um_3bit_flash_adc_dc_corners.sch

Doing analysis at TEMP = 27.000000 and TNOM = 27.000000

Using SPARSE 1.3 as Direct Linear Solver
 Reference value :  0.00000e+00 Reference value :  1.00000e-02 Reference value :  2.00000e-02 Reference value :  3.00000e-02 Reference value :  4.00000e-02 Reference value :  5.00000e-02 Reference value :  6.00000e-02 Reference value :  7.00000e-02 Reference value :  8.00000e-02 Reference value :  9.00000e-02 Reference value :  1.00000e-01 Reference value :  1.10000e-01 Reference value :  1.20000e-01 Reference value :  1.40000e-01 Reference value :  1.50000e-01 Reference value :  1.60000e-01 Reference value :  1.70000e-01 Reference value :  1.80000e-01 Reference value :  1.90000e-01 Reference value :  2.00000e-01 Reference value :  2.10000e-01 Reference value :  2.20000e-01 Reference value :  2.30000e-01 Reference value :  2.50000e-01 Reference value :  2.60000e-01 Reference value :  2.70000e-01 Reference value :  2.80000e-01 Reference value :  2.90000e-01 Reference value :  3.00000e-01 Reference value :  3.10000e-01 Reference value :  3.20000e-01 Reference value :  3.30000e-01 Reference value :  3.40000e-01 Reference value :  3.50000e-01 Reference value :  3.60000e-01 Reference value :  3.70000e-01 Reference value :  3.80000e-01 Reference value :  3.90000e-01 Reference value :  4.00000e-01 Reference value :  4.20000e-01 Reference value :  4.40000e-01 Reference value :  4.50000e-01 Reference value :  4.70000e-01 Reference value :  4.80000e-01 Reference value :  4.90000e-01 Reference value :  5.00000e-01 Reference value :  5.10000e-01 Reference value :  5.20000e-01 Reference value :  5.30000e-01 Reference value :  5.40000e-01 Reference value :  5.50000e-01 Reference value :  5.60000e-01 Reference value :  5.70000e-01 Reference value :  5.90000e-01 Reference value :  6.00000e-01 Reference value :  6.10000e-01 Reference value :  6.20000e-01 Reference value :  6.30000e-01 Reference value :  6.40000e-01 Reference value :  6.50000e-01 Reference value :  6.60000e-01 Reference value :  6.70000e-01 Reference value :  6.80000e-01 Reference value :  6.90000e-01 Reference value :  7.00000e-01 Reference value :  7.10000e-01 Reference value :  7.30000e-01 Reference value :  7.40000e-01 Reference value :  7.50000e-01 Reference value :  7.60000e-01 Reference value :  7.70000e-01 Reference value :  7.80000e-01 Reference value :  7.90000e-01 Reference value :  8.00000e-01 Reference value :  8.10000e-01 Reference value :  8.20000e-01 Reference value :  8.30000e-01 Reference value :  8.40000e-01 Reference value :  8.50000e-01 Reference value :  8.60000e-01 Reference value :  8.70000e-01 Reference value :  8.90000e-01 Reference value :  9.00000e-01 Reference value :  9.10000e-01 Reference value :  9.20000e-01 Reference value :  9.30000e-01 Reference value :  9.40000e-01 Reference value :  9.50000e-01 Reference value :  9.60000e-01 Reference value :  9.70000e-01 Reference value :  9.80000e-01 Reference value :  9.90000e-01 Reference value :  1.00000e+00
No. of Data Rows : 101
Note: Simulation executed from .control section 


Note: No compatibility mode selected!


Circuit: ** sch_path: /home/bmott/ttsky25b_tiny_chaos/xsch/tb/adc/tt_um_3bit_flash_adc_dc_corners.sch

Doing analysis at TEMP = 27.000000 and TNOM = 27.000000

Using SPARSE 1.3 as Direct Linear Solver
 Reference value :  0.00000e+00 Reference value :  1.90000e-01 Reference value :  2.30000e-01 Reference value :  2.40000e-01 Reference value :  2.60000e-01 Reference value :  2.70000e-01 Reference value :  2.80000e-01 Reference value :  2.90000e-01 Reference value :  3.00000e-01 Reference value :  3.10000e-01 Reference value :  3.20000e-01 Reference value :  3.30000e-01 Reference value :  3.40000e-01 Reference value :  3.50000e-01 Reference value :  3.60000e-01 Reference value :  3.70000e-01 Reference value :  3.80000e-01 Reference value :  3.90000e-01 Reference value :  4.00000e-01 Reference value :  4.10000e-01 Reference value :  4.20000e-01 Reference value :  4.30000e-01 Reference value :  4.40000e-01 Reference value :  4.50000e-01 Reference value :  4.60000e-01 Reference value :  4.70000e-01 Reference value :  4.80000e-01 Reference value :  4.90000e-01 Reference value :  5.00000e-01 Reference value :  5.10000e-01 Reference value :  5.20000e-01 Reference value :  5.30000e-01 Reference value :  5.40000e-01 Reference value :  5.50000e-01 Reference value :  5.60000e-01 Reference value :  5.70000e-01 Reference value :  5.90000e-01 Reference value :  6.00000e-01 Reference value :  6.10000e-01 Reference value :  6.20000e-01 Reference value :  6.30000e-01 Reference value :  6.40000e-01 Reference value :  6.50000e-01 Reference value :  6.60000e-01 Reference value :  6.70000e-01 Reference value :  6.80000e-01 Reference value :  6.90000e-01 Reference value :  7.00000e-01 Reference value :  7.10000e-01 Reference value :  7.20000e-01 Reference value :  7.50000e-01 Reference value :  7.60000e-01 Reference value :  7.70000e-01 Reference value :  7.80000e-01 Reference value :  7.90000e-01 Reference value :  8.00000e-01 Reference value :  8.10000e-01 Reference value :  8.20000e-01 Reference value :  8.30000e-01 Reference value :  8.40000e-01 Reference value :  8.60000e-01 Reference value :  8.80000e-01 Reference value :  8.90000e-01 Reference value :  9.00000e-01 Reference value :  9.10000e-01 Reference value :  9.20000e-01 Reference value :  9.30000e-01 Reference value :  9.40000e-01 Reference value :  9.50000e-01 Reference value :  9.60000e-01 Reference value :  9.70000e-01 Reference value :  9.80000e-01 Reference value :  9.90000e-01
No. of Data Rows : 101
Note: Simulation executed from .control section 

