
Note: No compatibility mode selected!


Circuit: ** sch_path: /home/bmott/ttsky25b_tiny_chaos/xsch/tb/adc/tt_um_3bit_flash_adc_tran_corners.sch

Doing analysis at TEMP = 27.000000 and TNOM = 27.000000

Using SPARSE 1.3 as Direct Linear Solver

Initial Transient Solution
--------------------------

Node                                   Voltage
----                                   -------
x1.x2.latch_left                       0.62296
x1.ref0                              0.0710088
x1.x2.tail                            0.665094
vdd                                    1.79985
x1.x2.latch_right                  2.81641e-05
vin                                        0.5
x1.bias_p                              1.12567
x1.d0                                  1.79985
x1.x2.out_left                         1.05624
x1.x3.latch_left                      0.627862
x1.ref1                               0.215708
x1.x3.tail                            0.754614
x1.x3.latch_right                  0.000729216
x1.d1                                  1.79985
x1.x3.out_left                         1.05346
x1.x4.latch_left                      0.617429
x1.ref2                               0.358622
x1.x4.tail                            0.849665
x1.x4.latch_right                    0.0109407
x1.d2                                  1.79985
x1.x4.out_left                         1.07299
x1.x5.latch_left                      0.310778
x1.ref3                               0.506441
x1.x5.tail                            0.925547
x1.x5.latch_right                     0.569141
x1.d3                              0.000367382
x1.x5.out_left                         1.51646
x1.x6.latch_left                    0.00898804
x1.ref4                               0.646587
x1.x6.tail                            0.963257
x1.x6.latch_right                     0.611131
x1.d4                              2.88095e-07
x1.x6.out_left                          1.7885
x1.x7.latch_left                   0.000234355
x1.ref5                               0.791617
x1.x7.tail                             0.96926
x1.x7.latch_right                     0.627013
x1.d5                              2.18862e-07
x1.x7.out_left                         1.79038
x1.x8.latch_left                    4.0319e-06
x1.ref6                               0.929576
x1.x8.tail                            0.972143
x1.x8.latch_right                     0.626987
x1.d6                              2.35188e-07
x1.x8.out_left                         1.79136
x1.x9.bias_1                          0.996277
x1.x9.xr_bias_1.x0.t1                 0.997123
x1.x9.xr_bias_1.x0.t2                  1.12485
x1.bias_n                             0.603172
x1.x9.bias_2                          0.865745
x1.x9.xr_bias_2.x0.t1                 0.866542
x1.x9.xr_bias_2.x0.t2                 0.995481
x1.x9.bias_3                          0.734113
x1.x9.xr_bias_3.x0.t1                 0.734915
x1.x9.xr_bias_3.x0.t2                 0.864901
x1.x9.xr_bias_4.x0.t1                 0.604088
x1.x9.xr_bias_4.x0.t2                  0.73324
x1.x1.y2                           4.80449e-07
x1.x1.x3                           4.80449e-07
x1.x1.x1.net1                          1.79985
x1.x1.x6                           9.64899e-07
x1.x1.net2                             1.79985
x1.x1.x2                               1.79985
x1.x1.x2.net1                          1.79985
x1.x1.x5                           7.85177e-07
x1.x1.y1                               1.79985
x1.x1.x1                               1.79985
x1.x1.x3.net1                          1.79985
x1.x1.x4                           7.95752e-07
x1.x1.net1                             1.79985
x1.x1.x0                               1.79985
x1.x1.x4.net1                      4.39371e-07
x1.x1.y0                               1.79985
x1.x1.x5.net1                      4.24751e-07
x1.x1.x6.net1                      3.96721e-07
x1.x1.x7.net1                      5.47541e-07
x1.x1.x8.net1                          1.79985
x1.x1.x9.net1                          1.79985
x1.x1.x10.net1                         1.79985
x1.x1.x11.net1                         1.79985
x1.x1.x12.net1                     3.75052e-07
d0                                     1.79985
x1.x1.x13.net1                     4.45133e-07
d1                                     1.79985
x1.x1.x14.net1                         1.79985
d2                                 4.37098e-07
x1.xr12.x0.t1                         0.931722
x1.xr12.x0.t2                         0.997706
vref                                  0.999933
x1.xr1.x0.t1                          0.796509
x1.xr1.x0.t2                          0.925034
x1.xr2.x0.t1                          0.651196
x1.xr2.x0.t2                          0.787043
x1.xr3.x0.t1                          0.510962
x1.xr3.x0.t2                          0.642303
x1.xr4.x0.t1                          0.363094
x1.xr4.x0.t2                          0.502312
x1.xr5.x0.t1                          0.220191
x1.xr5.x0.t2                          0.354282
x1.xr6.x0.t1                         0.0758866
x1.xr6.x0.t2                          0.210992
x1.xr7.x0.t1                        0.00246617
x1.xr7.x0.t2                         0.0685183
x1.xr8.x0.t1                        0.00215336
x1.xr8.x0.t2                          0.068812
x1.xr9.x0.t1                          0.932048
x1.xr9.x0.t2                          0.997554
net1                                       0.5
net2                                         1
vout                                     0.375
e1_int1                                  0.375
net3                                       1.8
be1#branch                                   0
e1#branch                                    0
v3#branch                         -0.000152523
v2#branch                         -6.68679e-05
v1#branch                                    0

 Reference value :  0.00000e+00 Reference value :  6.00000e-09 Reference value :  2.40000e-08 Reference value :  4.80000e-08 Reference value :  7.07022e-08 Reference value :  8.71448e-08 Reference value :  1.03159e-07 Reference value :  1.19245e-07 Reference value :  1.35945e-07 Reference value :  1.55485e-07 Reference value :  1.77111e-07 Reference value :  2.02971e-07 Reference value :  2.33992e-07 Reference value :  2.71967e-07 Reference value :  3.19857e-07 Reference value :  3.80225e-07 Reference value :  4.58889e-07 Reference value :  5.44639e-07 Reference value :  6.03028e-07 Reference value :  6.57980e-07 Reference value :  7.31625e-07 Reference value :  8.09701e-07 Reference value :  9.02174e-07 Reference value :  1.02166e-06 Reference value :  1.13970e-06 Reference value :  1.22341e-06 Reference value :  1.30049e-06 Reference value :  1.39817e-06 Reference value :  1.53377e-06 Reference value :  1.68407e-06 Reference value :  1.84955e-06 Reference value :  1.96275e-06 Reference value :  2.06687e-06 Reference value :  2.20208e-06 Reference value :  2.40167e-06 Reference value :  2.62437e-06 Reference value :  2.94841e-06 Reference value :  3.34959e-06 Reference value :  3.87993e-06 Reference value :  4.20565e-06 Reference value :  4.39339e-06 Reference value :  4.61226e-06 Reference value :  4.63814e-06 Reference value :  4.68989e-06 Reference value :  4.78261e-06 Reference value :  4.87808e-06 Reference value :  4.90194e-06 Reference value :  4.94967e-06 Reference value :  4.99456e-06 Reference value :  5.02685e-06 Reference value :  5.05762e-06 Reference value :  5.08977e-06 Reference value :  5.13307e-06 Reference value :  5.18880e-06 Reference value :  5.26805e-06 Reference value :  5.39170e-06 Reference value :  5.51529e-06 Reference value :  5.60231e-06 Reference value :  5.68337e-06 Reference value :  5.76508e-06 Reference value :  5.86226e-06 Reference value :  5.96524e-06 Reference value :  6.03656e-06 Reference value :  6.10315e-06 Reference value :  6.19295e-06 Reference value :  6.32981e-06 Reference value :  6.51160e-06 Reference value :  6.71562e-06 Reference value :  6.88759e-06 Reference value :  7.06444e-06 Reference value :  7.24174e-06 Reference value :  7.44942e-06 Reference value :  7.86480e-06 Reference value :  8.25529e-06 Reference value :  8.85529e-06 Reference value :  9.14939e-06 Reference value :  9.40133e-06 Reference value :  9.65583e-06 Reference value :  9.84436e-06 Reference value :  1.00477e-05 Reference value :  1.01841e-05 Reference value :  1.03088e-05 Reference value :  1.04375e-05 Reference value :  1.05683e-05 Reference value :  1.06612e-05 Reference value :  1.07467e-05 Reference value :  1.08567e-05 Reference value :  1.10090e-05 Reference value :  1.11549e-05 Reference value :  1.12602e-05 Reference value :  1.13571e-05 Reference value :  1.14782e-05 Reference value :  1.16624e-05 Reference value :  1.18440e-05 Reference value :  1.19730e-05 Reference value :  1.20924e-05 Reference value :  1.22435e-05 Reference value :  1.24861e-05 Reference value :  1.27695e-05 Reference value :  1.32202e-05 Reference value :  1.37927e-05 Reference value :  1.42230e-05 Reference value :  1.44590e-05 Reference value :  1.44832e-05 Reference value :  1.45316e-05 Reference value :  1.45805e-05 Reference value :  1.46143e-05 Reference value :  1.46462e-05 Reference value :  1.46850e-05 Reference value :  1.47212e-05 Reference value :  1.47897e-05 Reference value :  1.48822e-05 Reference value :  1.49780e-05 Reference value :  1.50952e-05 Reference value :  1.51692e-05 Reference value :  1.52388e-05 Reference value :  1.53319e-05 Reference value :  1.54548e-05 Reference value :  1.55863e-05 Reference value :  1.56739e-05 Reference value :  1.57542e-05 Reference value :  1.58584e-05 Reference value :  1.59703e-05 Reference value :  1.60469e-05 Reference value :  1.61182e-05 Reference value :  1.62151e-05 Reference value :  1.63768e-05 Reference value :  1.65436e-05 Reference value :  1.67457e-05 Reference value :  1.68922e-05 Reference value :  1.70523e-05 Reference value :  1.72655e-05 Reference value :  1.74646e-05 Reference value :  1.78629e-05 Reference value :  1.82902e-05 Reference value :  1.86988e-05 Reference value :  1.89946e-05 Reference value :  1.93148e-05 Reference value :  1.95769e-05 Reference value :  1.97263e-05 Reference value :  1.99003e-05 Reference value :  2.00750e-05 Reference value :  2.01664e-05 Reference value :  2.02752e-05 Reference value :  2.03885e-05 Reference value :  2.04947e-05 Reference value :  2.04967e-05 Reference value :  2.05006e-05 Reference value :  2.05064e-05 Reference value :  2.05132e-05 Reference value :  2.05183e-05 Reference value :  2.05236e-05 Reference value :  2.05293e-05 Reference value :  2.05353e-05 Reference value :  2.05438e-05 Reference value :  2.05531e-05 Reference value :  2.05664e-05 Reference value :  2.05838e-05 Reference value :  2.06073e-05 Reference value :  2.06446e-05 Reference value :  2.07077e-05 Reference value :  2.08271e-05 Reference value :  2.09736e-05 Reference value :  2.09960e-05 Reference value :  2.10408e-05 Reference value :  2.10687e-05 Reference value :  2.10941e-05 Reference value :  2.11220e-05 Reference value :  2.11490e-05 Reference value :  2.11801e-05 Reference value :  2.12143e-05 Reference value :  2.12539e-05 Reference value :  2.13013e-05 Reference value :  2.13585e-05 Reference value :  2.14302e-05 Reference value :  2.15205e-05 Reference value :  2.16512e-05 Reference value :  2.17841e-05 Reference value :  2.18772e-05 Reference value :  2.19637e-05 Reference value :  2.20754e-05 Reference value :  2.22239e-05 Reference value :  2.24065e-05 Reference value :  2.26748e-05 Reference value :  2.30772e-05 Reference value :  2.34618e-05 Reference value :  2.36040e-05 Reference value :  2.37317e-05 Reference value :  2.38660e-05 Reference value :  2.40482e-05 Reference value :  2.41723e-05 Reference value :  2.42862e-05 Reference value :  2.44425e-05 Reference value :  2.44618e-05 Reference value :  2.45003e-05 Reference value :  2.45100e-05 Reference value :  2.45550e-05 Reference value :  2.45578e-05 Reference value :  2.45636e-05 Reference value :  2.45689e-05 Reference value :  2.45731e-05 Reference value :  2.45776e-05 Reference value :  2.45834e-05 Reference value :  2.45896e-05 Reference value :  2.46001e-05 Reference value :  2.46125e-05 Reference value :  2.46325e-05 Reference value :  2.46608e-05 Reference value :  2.47025e-05 Reference value :  2.47683e-05 Reference value :  2.48661e-05 Reference value :  2.49842e-05 Reference value :  2.51015e-05 Reference value :  2.51809e-05 Reference value :  2.52548e-05 Reference value :  2.53488e-05 Reference value :  2.54869e-05 Reference value :  2.55992e-05 Reference value :  2.56793e-05 Reference value :  2.57588e-05 Reference value :  2.58502e-05 Reference value :  2.59485e-05 Reference value :  2.60170e-05 Reference value :  2.60825e-05 Reference value :  2.61677e-05 Reference value :  2.62558e-05 Reference value :  2.64322e-05 Reference value :  2.65913e-05 Reference value :  2.67887e-05 Reference value :  2.69204e-05 Reference value :  2.70639e-05 Reference value :  2.72470e-05 Reference value :  2.75326e-05 Reference value :  2.81038e-05 Reference value :  2.87038e-05 Reference value :  2.90186e-05 Reference value :  2.93950e-05 Reference value :  2.96835e-05 Reference value :  2.97166e-05 Reference value :  2.97827e-05 Reference value :  2.99151e-05 Reference value :  3.00000e-05
No. of Data Rows : 245
Note: Simulation executed from .control section 


Note: No compatibility mode selected!


Circuit: ** sch_path: /home/bmott/ttsky25b_tiny_chaos/xsch/tb/adc/tt_um_3bit_flash_adc_tran_corners.sch

Doing analysis at TEMP = 27.000000 and TNOM = 27.000000

Using SPARSE 1.3 as Direct Linear Solver

Initial Transient Solution
--------------------------

Node                                   Voltage
----                                   -------
x1.x2.latch_left                       0.62555
x1.ref0                              0.0722296
x1.x2.tail                            0.669652
vdd                                    1.79984
x1.x2.latch_right                  2.94825e-05
vin                                        0.5
x1.bias_p                              1.12906
x1.d0                                  1.79984
x1.x2.out_left                         1.05735
x1.x3.latch_left                       0.62517
x1.ref1                               0.223082
x1.x3.tail                            0.751882
x1.x3.latch_right                  0.000628285
x1.d1                                  1.79984
x1.x3.out_left                          1.0545
x1.x4.latch_left                      0.606663
x1.ref2                               0.371307
x1.x4.tail                            0.854827
x1.x4.latch_right                    0.0145951
x1.d2                                  1.79984
x1.x4.out_left                         1.08919
x1.x5.latch_left                      0.562225
x1.ref3                               0.504873
x1.x5.tail                            0.926117
x1.x5.latch_right                     0.387805
x1.d3                                  1.79615
x1.x5.out_left                         1.15723
x1.x6.latch_left                    0.00974448
x1.ref4                               0.645736
x1.x6.tail                            0.966794
x1.x6.latch_right                     0.616109
x1.d4                              2.79756e-07
x1.x6.out_left                         1.78684
x1.x7.latch_left                   0.000219299
x1.ref5                               0.788356
x1.x7.tail                            0.967269
x1.x7.latch_right                     0.621396
x1.d5                              2.11734e-07
x1.x7.out_left                         1.79046
x1.x8.latch_left                   4.12378e-06
x1.ref6                                0.92899
x1.x8.tail                            0.970735
x1.x8.latch_right                     0.621134
x1.d6                              2.78411e-07
x1.x8.out_left                         1.78922
x1.x9.bias_1                          0.994489
x1.x9.xr_bias_1.x0.t1                 0.995347
x1.x9.xr_bias_1.x0.t2                  1.12822
x1.bias_n                             0.603871
x1.x9.bias_2                          0.866608
x1.x9.xr_bias_2.x0.t1                 0.867407
x1.x9.xr_bias_2.x0.t2                 0.993638
x1.x9.bias_3                          0.736883
x1.x9.xr_bias_3.x0.t1                 0.737703
x1.x9.xr_bias_3.x0.t2                 0.865771
x1.x9.xr_bias_4.x0.t1                 0.604706
x1.x9.xr_bias_4.x0.t2                 0.735984
x1.x1.y2                               1.79984
x1.x1.x3                               1.79984
x1.x1.x1.net1                      4.77355e-07
x1.x1.x6                            8.7016e-07
x1.x1.net2                         1.25994e-06
x1.x1.x2                               1.79984
x1.x1.x2.net1                      4.32778e-07
x1.x1.x5                           8.98591e-07
x1.x1.y1                           1.31805e-06
x1.x1.x1                               1.79984
x1.x1.x3.net1                      4.07891e-07
x1.x1.x4                           7.75223e-07
x1.x1.net1                         1.32723e-06
x1.x1.x0                               1.79984
x1.x1.x4.net1                          1.79984
x1.x1.y0                           1.33185e-06
x1.x1.x5.net1                      4.15142e-07
x1.x1.x6.net1                      5.07144e-07
x1.x1.x7.net1                      5.40867e-07
x1.x1.x8.net1                      6.13903e-07
x1.x1.x9.net1                          1.79984
x1.x1.x10.net1                         1.79984
x1.x1.x11.net1                         1.79984
x1.x1.x12.net1                         1.79984
d0                                 4.28671e-07
x1.x1.x13.net1                         1.79984
d1                                 3.39353e-07
x1.x1.x14.net1                     3.94533e-07
d2                                     1.79984
x1.xr12.x0.t1                         0.931342
x1.xr12.x0.t2                         0.997606
vref                                  0.999933
x1.xr1.x0.t1                          0.792993
x1.xr1.x0.t2                          0.924499
x1.xr2.x0.t1                          0.650083
x1.xr2.x0.t2                          0.784118
x1.xr3.x0.t1                          0.509277
x1.xr3.x0.t2                          0.641788
x1.xr4.x0.t1                          0.375686
x1.xr4.x0.t2                           0.50022
x1.xr5.x0.t1                          0.227724
x1.xr5.x0.t2                           0.36678
x1.xr6.x0.t1                         0.0766708
x1.xr6.x0.t2                          0.218227
x1.xr7.x0.t1                        0.00212182
x1.xr7.x0.t2                         0.0698882
x1.xr8.x0.t1                        0.00224476
x1.xr8.x0.t2                          0.069907
x1.xr9.x0.t1                          0.931112
x1.xr9.x0.t2                           0.99795
net1                                       0.5
net2                                         1
vout                                       0.5
e1_int1                                    0.5
net3                                       1.8
be1#branch                                   0
e1#branch                                    0
v3#branch                          -0.00015711
v2#branch                         -6.68085e-05
v1#branch                                    0

 Reference value :  0.00000e+00 Reference value :  6.00000e-09 Reference value :  1.20000e-08 Reference value :  4.80000e-08 Reference value :  8.78112e-08 Reference value :  1.47443e-07 Reference value :  2.25282e-07 Reference value :  3.06774e-07 Reference value :  4.32503e-07 Reference value :  4.50860e-07 Reference value :  4.87574e-07 Reference value :  5.10597e-07 Reference value :  5.31543e-07 Reference value :  5.54228e-07 Reference value :  5.74868e-07 Reference value :  5.99305e-07 Reference value :  6.25565e-07 Reference value :  6.56394e-07 Reference value :  6.93917e-07 Reference value :  7.39980e-07 Reference value :  8.00405e-07 Reference value :  8.90375e-07 Reference value :  9.09022e-07 Reference value :  9.46316e-07 Reference value :  1.02090e-06 Reference value :  1.08998e-06 Reference value :  1.13986e-06 Reference value :  1.18626e-06 Reference value :  1.24522e-06 Reference value :  1.32048e-06 Reference value :  1.43179e-06 Reference value :  1.58231e-06 Reference value :  1.74209e-06 Reference value :  1.85228e-06 Reference value :  1.95500e-06 Reference value :  2.08936e-06 Reference value :  2.25383e-06 Reference value :  2.47611e-06 Reference value :  2.79928e-06 Reference value :  3.28310e-06 Reference value :  3.88310e-06 Reference value :  4.09372e-06 Reference value :  4.32423e-06 Reference value :  4.46321e-06 Reference value :  4.61645e-06 Reference value :  4.72527e-06 Reference value :  4.82386e-06 Reference value :  4.95239e-06 Reference value :  5.09830e-06 Reference value :  5.19609e-06 Reference value :  5.28713e-06 Reference value :  5.40585e-06 Reference value :  5.52782e-06 Reference value :  5.61124e-06 Reference value :  5.68768e-06 Reference value :  5.78423e-06 Reference value :  5.91701e-06 Reference value :  6.05320e-06 Reference value :  6.14543e-06 Reference value :  6.22972e-06 Reference value :  6.33957e-06 Reference value :  6.46678e-06 Reference value :  6.62992e-06 Reference value :  6.79134e-06 Reference value :  6.91635e-06 Reference value :  7.05072e-06 Reference value :  7.22109e-06 Reference value :  7.56183e-06 Reference value :  8.15453e-06 Reference value :  8.66529e-06 Reference value :  8.96199e-06 Reference value :  9.30445e-06 Reference value :  9.47562e-06 Reference value :  9.65103e-06 Reference value :  9.78091e-06 Reference value :  9.92701e-06 Reference value :  9.93863e-06 Reference value :  9.96188e-06 Reference value :  1.00084e-05 Reference value :  1.00525e-05 Reference value :  1.00841e-05 Reference value :  1.01138e-05 Reference value :  1.01534e-05 Reference value :  1.01893e-05 Reference value :  1.02437e-05 Reference value :  1.03100e-05 Reference value :  1.03985e-05 Reference value :  1.04120e-05 Reference value :  1.04388e-05 Reference value :  1.04745e-05 Reference value :  1.04794e-05 Reference value :  1.04893e-05 Reference value :  1.04984e-05 Reference value :  1.05056e-05 Reference value :  1.05133e-05 Reference value :  1.05214e-05 Reference value :  1.05298e-05 Reference value :  1.05409e-05 Reference value :  1.05538e-05 Reference value :  1.05708e-05 Reference value :  1.05931e-05 Reference value :  1.06226e-05 Reference value :  1.06633e-05 Reference value :  1.07188e-05 Reference value :  1.08031e-05 Reference value :  1.09479e-05 Reference value :  1.10889e-05 Reference value :  1.11889e-05 Reference value :  1.12824e-05 Reference value :  1.14018e-05 Reference value :  1.15488e-05 Reference value :  1.17025e-05 Reference value :  1.18094e-05 Reference value :  1.19103e-05 Reference value :  1.20458e-05 Reference value :  1.21710e-05 Reference value :  1.23442e-05 Reference value :  1.25490e-05 Reference value :  1.28033e-05 Reference value :  1.31376e-05 Reference value :  1.35477e-05 Reference value :  1.38210e-05 Reference value :  1.39452e-05 Reference value :  1.40515e-05 Reference value :  1.41382e-05 Reference value :  1.42188e-05 Reference value :  1.42919e-05 Reference value :  1.43749e-05 Reference value :  1.45409e-05 Reference value :  1.47062e-05 Reference value :  1.48222e-05 Reference value :  1.49323e-05 Reference value :  1.50688e-05 Reference value :  1.51580e-05 Reference value :  1.52407e-05 Reference value :  1.53504e-05 Reference value :  1.54522e-05 Reference value :  1.55267e-05 Reference value :  1.55956e-05 Reference value :  1.56662e-05 Reference value :  1.57473e-05 Reference value :  1.59097e-05 Reference value :  1.60567e-05 Reference value :  1.61609e-05 Reference value :  1.62565e-05 Reference value :  1.63735e-05 Reference value :  1.65141e-05 Reference value :  1.66749e-05 Reference value :  1.67880e-05 Reference value :  1.69106e-05 Reference value :  1.70815e-05 Reference value :  1.72487e-05 Reference value :  1.75830e-05 Reference value :  1.81830e-05 Reference value :  1.87830e-05 Reference value :  1.92352e-05 Reference value :  1.94994e-05 Reference value :  1.98054e-05 Reference value :  2.00142e-05 Reference value :  2.01390e-05 Reference value :  2.02864e-05 Reference value :  2.04204e-05 Reference value :  2.05634e-05 Reference value :  2.06403e-05 Reference value :  2.07157e-05 Reference value :  2.08201e-05 Reference value :  2.09258e-05 Reference value :  2.10265e-05 Reference value :  2.10832e-05 Reference value :  2.11391e-05 Reference value :  2.11967e-05 Reference value :  2.12577e-05 Reference value :  2.13548e-05 Reference value :  2.14596e-05 Reference value :  2.16135e-05 Reference value :  2.17646e-05 Reference value :  2.18547e-05 Reference value :  2.19576e-05 Reference value :  2.21050e-05 Reference value :  2.22456e-05 Reference value :  2.24834e-05 Reference value :  2.27742e-05 Reference value :  2.31860e-05 Reference value :  2.35785e-05 Reference value :  2.37254e-05 Reference value :  2.38634e-05 Reference value :  2.40063e-05 Reference value :  2.41490e-05 Reference value :  2.42243e-05 Reference value :  2.43124e-05 Reference value :  2.44188e-05 Reference value :  2.45977e-05 Reference value :  2.47283e-05 Reference value :  2.48510e-05 Reference value :  2.49809e-05 Reference value :  2.50710e-05 Reference value :  2.51270e-05 Reference value :  2.51894e-05 Reference value :  2.52579e-05 Reference value :  2.53286e-05 Reference value :  2.54378e-05 Reference value :  2.55475e-05 Reference value :  2.56131e-05 Reference value :  2.56857e-05 Reference value :  2.57657e-05 Reference value :  2.59064e-05 Reference value :  2.60306e-05 Reference value :  2.61152e-05 Reference value :  2.61941e-05 Reference value :  2.62944e-05 Reference value :  2.64153e-05 Reference value :  2.65867e-05 Reference value :  2.67390e-05 Reference value :  2.68455e-05 Reference value :  2.69608e-05 Reference value :  2.71023e-05 Reference value :  2.73853e-05 Reference value :  2.78008e-05 Reference value :  2.82801e-05 Reference value :  2.88801e-05 Reference value :  2.92087e-05 Reference value :  2.93984e-05 Reference value :  2.95847e-05 Reference value :  2.97979e-05 Reference value :  2.99108e-05 Reference value :  3.00000e-05
No. of Data Rows : 228
Note: Simulation executed from .control section 


Note: No compatibility mode selected!


Circuit: ** sch_path: /home/bmott/ttsky25b_tiny_chaos/xsch/tb/adc/tt_um_3bit_flash_adc_tran_corners.sch

Doing analysis at TEMP = 27.000000 and TNOM = 27.000000

Using SPARSE 1.3 as Direct Linear Solver

Initial Transient Solution
--------------------------

Node                                   Voltage
----                                   -------
x1.x2.latch_left                      0.624858
x1.ref0                               0.070445
x1.x2.tail                            0.666806
vdd                                    1.79985
x1.x2.latch_right                  3.27204e-05
vin                                        0.5
x1.bias_p                              1.12732
x1.d0                                  1.79985
x1.x2.out_left                         1.06677
x1.x3.latch_left                      0.628414
x1.ref1                               0.210014
x1.x3.tail                            0.746849
x1.x3.latch_right                  0.000443725
x1.d1                                  1.79985
x1.x3.out_left                         1.06243
x1.x4.latch_left                      0.613934
x1.ref2                               0.356683
x1.x4.tail                            0.844089
x1.x4.latch_right                   0.00844107
x1.d2                                  1.79985
x1.x4.out_left                           1.075
x1.x5.latch_left                      0.378297
x1.ref3                               0.499572
x1.x5.tail                            0.925441
x1.x5.latch_right                     0.565376
x1.d3                               0.00266068
x1.x5.out_left                         1.41753
x1.x6.latch_left                    0.00903704
x1.ref4                               0.646276
x1.x6.tail                            0.962219
x1.x6.latch_right                     0.615765
x1.d4                               2.8226e-07
x1.x6.out_left                         1.78867
x1.x7.latch_left                   0.000293921
x1.ref5                               0.782871
x1.x7.tail                            0.970155
x1.x7.latch_right                      0.62718
x1.d5                              2.36029e-07
x1.x7.out_left                         1.78842
x1.x8.latch_left                   3.96824e-06
x1.ref6                               0.928725
x1.x8.tail                             0.97005
x1.x8.latch_right                     0.623965
x1.d6                               2.4948e-07
x1.x8.out_left                         1.78851
x1.x9.bias_1                          0.994555
x1.x9.xr_bias_1.x0.t1                 0.995423
x1.x9.xr_bias_1.x0.t2                  1.12646
x1.bias_n                             0.605197
x1.x9.bias_2                          0.864641
x1.x9.xr_bias_2.x0.t1                 0.865525
x1.x9.xr_bias_2.x0.t2                 0.993671
x1.x9.bias_3                          0.734047
x1.x9.xr_bias_3.x0.t1                 0.734875
x1.x9.xr_bias_3.x0.t2                 0.863717
x1.x9.xr_bias_4.x0.t1                 0.606012
x1.x9.xr_bias_4.x0.t2                 0.733185
x1.x1.y2                           4.24984e-07
x1.x1.x3                           4.24984e-07
x1.x1.x1.net1                          1.79985
x1.x1.x6                           7.79149e-07
x1.x1.net2                             1.79985
x1.x1.x2                               1.79985
x1.x1.x2.net1                          1.79985
x1.x1.x5                           6.74799e-07
x1.x1.y1                               1.79985
x1.x1.x1                               1.79985
x1.x1.x3.net1                          1.79985
x1.x1.x4                           7.66134e-07
x1.x1.net1                             1.79985
x1.x1.x0                               1.79985
x1.x1.x4.net1                      3.93209e-07
x1.x1.y0                               1.79985
x1.x1.x5.net1                      3.63459e-07
x1.x1.x6.net1                      4.14567e-07
x1.x1.x7.net1                      3.45149e-07
x1.x1.x8.net1                          1.79985
x1.x1.x9.net1                          1.79985
x1.x1.x10.net1                         1.79985
x1.x1.x11.net1                         1.79985
x1.x1.x12.net1                     3.62021e-07
d0                                     1.79985
x1.x1.x13.net1                     3.89515e-07
d1                                     1.79985
x1.x1.x14.net1                         1.79985
d2                                 2.80079e-07
x1.xr12.x0.t1                         0.930874
x1.xr12.x0.t2                         0.997754
vref                                  0.999932
x1.xr1.x0.t1                          0.787645
x1.xr1.x0.t2                           0.92389
x1.xr2.x0.t1                          0.651287
x1.xr2.x0.t2                           0.77812
x1.xr3.x0.t1                          0.504295
x1.xr3.x0.t2                          0.641442
x1.xr4.x0.t1                          0.361184
x1.xr4.x0.t2                          0.495331
x1.xr5.x0.t1                          0.214409
x1.xr5.x0.t2                          0.352017
x1.xr6.x0.t1                         0.0751295
x1.xr6.x0.t2                          0.205203
x1.xr7.x0.t1                        0.00234884
x1.xr7.x0.t2                         0.0680282
x1.xr8.x0.t1                        0.00224717
x1.xr8.x0.t2                         0.0680764
x1.xr9.x0.t1                          0.930924
x1.xr9.x0.t2                          0.997599
net1                                       0.5
net2                                         1
vout                                     0.375
e1_int1                                  0.375
net3                                       1.8
be1#branch                                   0
e1#branch                                    0
v3#branch                         -0.000151248
v2#branch                         -6.76576e-05
v1#branch                                    0

 Reference value :  0.00000e+00 Reference value :  3.00000e-09 Reference value :  1.20000e-08 Reference value :  2.40000e-08 Reference value :  4.00023e-08 Reference value :  5.73819e-08 Reference value :  6.90387e-08 Reference value :  8.14345e-08 Reference value :  9.39855e-08 Reference value :  1.07141e-07 Reference value :  1.22353e-07 Reference value :  1.39447e-07 Reference value :  1.59840e-07 Reference value :  1.84410e-07 Reference value :  2.14592e-07 Reference value :  2.52631e-07 Reference value :  3.00756e-07 Reference value :  3.63057e-07 Reference value :  4.46463e-07 Reference value :  4.58344e-07 Reference value :  4.82107e-07 Reference value :  5.07217e-07 Reference value :  5.10640e-07 Reference value :  5.17487e-07 Reference value :  5.21920e-07 Reference value :  5.26929e-07 Reference value :  5.32384e-07 Reference value :  5.38492e-07 Reference value :  5.47319e-07 Reference value :  5.62100e-07 Reference value :  5.81285e-07 Reference value :  6.12796e-07 Reference value :  6.62435e-07 Reference value :  7.48901e-07 Reference value :  9.16270e-07 Reference value :  1.09050e-06 Reference value :  1.21034e-06 Reference value :  1.32204e-06 Reference value :  1.46288e-06 Reference value :  1.65621e-06 Reference value :  1.86166e-06 Reference value :  2.00325e-06 Reference value :  2.13418e-06 Reference value :  2.29873e-06 Reference value :  2.56038e-06 Reference value :  2.90674e-06 Reference value :  3.31051e-06 Reference value :  3.79863e-06 Reference value :  4.18917e-06 Reference value :  4.21926e-06 Reference value :  4.27944e-06 Reference value :  4.39979e-06 Reference value :  4.51278e-06 Reference value :  4.65173e-06 Reference value :  4.74091e-06 Reference value :  4.82252e-06 Reference value :  4.93252e-06 Reference value :  4.94982e-06 Reference value :  4.98441e-06 Reference value :  5.01702e-06 Reference value :  5.04259e-06 Reference value :  5.06937e-06 Reference value :  5.09358e-06 Reference value :  5.12006e-06 Reference value :  5.16035e-06 Reference value :  5.24093e-06 Reference value :  5.34081e-06 Reference value :  5.48031e-06 Reference value :  5.62624e-06 Reference value :  5.72527e-06 Reference value :  5.81633e-06 Reference value :  5.93109e-06 Reference value :  6.05842e-06 Reference value :  6.14303e-06 Reference value :  6.22110e-06 Reference value :  6.32319e-06 Reference value :  6.47737e-06 Reference value :  6.67343e-06 Reference value :  6.89706e-06 Reference value :  7.06847e-06 Reference value :  7.24833e-06 Reference value :  7.47862e-06 Reference value :  7.93918e-06 Reference value :  8.46245e-06 Reference value :  8.86560e-06 Reference value :  9.15141e-06 Reference value :  9.44787e-06 Reference value :  9.72223e-06 Reference value :  9.90202e-06 Reference value :  1.00695e-05 Reference value :  1.00952e-05 Reference value :  1.01466e-05 Reference value :  1.01987e-05 Reference value :  1.02543e-05 Reference value :  1.03656e-05 Reference value :  1.03934e-05 Reference value :  1.04490e-05 Reference value :  1.05010e-05 Reference value :  1.05588e-05 Reference value :  1.05981e-05 Reference value :  1.06341e-05 Reference value :  1.06818e-05 Reference value :  1.07366e-05 Reference value :  1.08320e-05 Reference value :  1.09637e-05 Reference value :  1.10957e-05 Reference value :  1.11889e-05 Reference value :  1.12750e-05 Reference value :  1.13843e-05 Reference value :  1.15756e-05 Reference value :  1.17769e-05 Reference value :  1.19150e-05 Reference value :  1.20438e-05 Reference value :  1.22092e-05 Reference value :  1.24398e-05 Reference value :  1.27329e-05 Reference value :  1.31789e-05 Reference value :  1.37672e-05 Reference value :  1.43672e-05 Reference value :  1.43874e-05 Reference value :  1.44279e-05 Reference value :  1.45088e-05 Reference value :  1.45900e-05 Reference value :  1.46463e-05 Reference value :  1.46987e-05 Reference value :  1.47661e-05 Reference value :  1.48359e-05 Reference value :  1.49755e-05 Reference value :  1.51056e-05 Reference value :  1.51983e-05 Reference value :  1.52842e-05 Reference value :  1.53912e-05 Reference value :  1.55098e-05 Reference value :  1.56310e-05 Reference value :  1.57133e-05 Reference value :  1.57887e-05 Reference value :  1.58869e-05 Reference value :  1.59979e-05 Reference value :  1.61165e-05 Reference value :  1.61974e-05 Reference value :  1.62753e-05 Reference value :  1.63723e-05 Reference value :  1.65156e-05 Reference value :  1.66838e-05 Reference value :  1.68521e-05 Reference value :  1.69810e-05 Reference value :  1.71208e-05 Reference value :  1.72993e-05 Reference value :  1.76563e-05 Reference value :  1.82563e-05 Reference value :  1.88563e-05 Reference value :  1.92019e-05 Reference value :  1.94272e-05 Reference value :  1.96817e-05 Reference value :  1.98030e-05 Reference value :  1.99433e-05 Reference value :  2.00324e-05 Reference value :  2.00901e-05 Reference value :  2.01460e-05 Reference value :  2.02038e-05 Reference value :  2.02695e-05 Reference value :  2.03632e-05 Reference value :  2.04707e-05 Reference value :  2.05908e-05 Reference value :  2.06651e-05 Reference value :  2.07390e-05 Reference value :  2.08461e-05 Reference value :  2.09775e-05 Reference value :  2.11077e-05 Reference value :  2.12008e-05 Reference value :  2.12868e-05 Reference value :  2.13954e-05 Reference value :  2.16082e-05 Reference value :  2.18195e-05 Reference value :  2.19680e-05 Reference value :  2.21068e-05 Reference value :  2.22804e-05 Reference value :  2.25508e-05 Reference value :  2.29076e-05 Reference value :  2.33782e-05 Reference value :  2.38454e-05 Reference value :  2.42695e-05 Reference value :  2.44718e-05 Reference value :  2.46209e-05 Reference value :  2.47087e-05 Reference value :  2.48032e-05 Reference value :  2.49079e-05 Reference value :  2.50064e-05 Reference value :  2.51097e-05 Reference value :  2.51691e-05 Reference value :  2.52333e-05 Reference value :  2.53145e-05 Reference value :  2.54524e-05 Reference value :  2.56274e-05 Reference value :  2.57508e-05 Reference value :  2.58653e-05 Reference value :  2.59769e-05 Reference value :  2.61101e-05 Reference value :  2.61827e-05 Reference value :  2.62658e-05 Reference value :  2.63632e-05 Reference value :  2.64853e-05 Reference value :  2.66553e-05 Reference value :  2.68602e-05 Reference value :  2.70035e-05 Reference value :  2.71575e-05 Reference value :  2.73627e-05 Reference value :  2.77729e-05 Reference value :  2.83729e-05 Reference value :  2.88977e-05 Reference value :  2.92131e-05 Reference value :  2.94136e-05 Reference value :  2.96192e-05 Reference value :  2.97365e-05 Reference value :  2.98772e-05 Reference value :  3.00000e-05
No. of Data Rows : 217
Note: Simulation executed from .control section 


Note: No compatibility mode selected!


Circuit: ** sch_path: /home/bmott/ttsky25b_tiny_chaos/xsch/tb/adc/tt_um_3bit_flash_adc_tran_corners.sch

Doing analysis at TEMP = 27.000000 and TNOM = 27.000000

Using SPARSE 1.3 as Direct Linear Solver

Initial Transient Solution
--------------------------

Node                                   Voltage
----                                   -------
x1.x2.latch_left                      0.638713
x1.ref0                               0.072099
x1.x2.tail                            0.677538
vdd                                    1.79984
x1.x2.latch_right                   4.6826e-05
vin                                        0.5
x1.bias_p                              1.12338
x1.d0                                  1.79984
x1.x2.out_left                         1.03473
x1.x3.latch_left                       0.62869
x1.ref1                               0.218065
x1.x3.tail                             0.75632
x1.x3.latch_right                  0.000709704
x1.d1                                  1.79984
x1.x3.out_left                         1.04867
x1.x4.latch_left                      0.611423
x1.ref2                               0.364431
x1.x4.tail                            0.854966
x1.x4.latch_right                     0.013652
x1.d2                                  1.79984
x1.x4.out_left                         1.07876
x1.x5.latch_left                      0.268347
x1.ref3                               0.506923
x1.x5.tail                            0.930753
x1.x5.latch_right                      0.56801
x1.d3                              0.000149484
x1.x5.out_left                         1.55765
x1.x6.latch_left                     0.0100755
x1.ref4                               0.647396
x1.x6.tail                            0.966437
x1.x6.latch_right                     0.613586
x1.d4                              2.45671e-07
x1.x6.out_left                         1.79007
x1.x7.latch_left                   0.000258025
x1.ref5                               0.788561
x1.x7.tail                            0.970865
x1.x7.latch_right                     0.632077
x1.d5                              2.26856e-07
x1.x7.out_left                         1.78947
x1.x8.latch_left                   4.58954e-06
x1.ref6                                0.92896
x1.x8.tail                            0.973828
x1.x8.latch_right                        0.625
x1.d6                              2.48028e-07
x1.x8.out_left                         1.79086
x1.x9.bias_1                          0.994518
x1.x9.xr_bias_1.x0.t1                 0.995255
x1.x9.xr_bias_1.x0.t2                  1.12244
x1.bias_n                             0.603806
x1.x9.bias_2                          0.862269
x1.x9.xr_bias_2.x0.t1                 0.863078
x1.x9.xr_bias_2.x0.t2                 0.993625
x1.x9.bias_3                          0.732835
x1.x9.xr_bias_3.x0.t1                 0.733766
x1.x9.xr_bias_3.x0.t2                 0.861431
x1.x9.xr_bias_4.x0.t1                 0.604566
x1.x9.xr_bias_4.x0.t2                 0.731982
x1.x1.y2                           3.48807e-07
x1.x1.x3                           3.48807e-07
x1.x1.x1.net1                          1.79984
x1.x1.x6                           9.76526e-07
x1.x1.net2                             1.79984
x1.x1.x2                               1.79984
x1.x1.x2.net1                          1.79984
x1.x1.x5                           8.44873e-07
x1.x1.y1                               1.79984
x1.x1.x1                               1.79984
x1.x1.x3.net1                          1.79984
x1.x1.x4                           7.97118e-07
x1.x1.net1                             1.79984
x1.x1.x0                               1.79984
x1.x1.x4.net1                      5.05844e-07
x1.x1.y0                               1.79984
x1.x1.x5.net1                      2.92344e-07
x1.x1.x6.net1                      5.29432e-07
x1.x1.x7.net1                      4.05732e-07
x1.x1.x8.net1                          1.79984
x1.x1.x9.net1                          1.79984
x1.x1.x10.net1                         1.79984
x1.x1.x11.net1                         1.79984
x1.x1.x12.net1                     5.02338e-07
d0                                     1.79984
x1.x1.x13.net1                     3.97079e-07
d1                                     1.79984
x1.x1.x14.net1                         1.79984
d2                                  4.7971e-07
x1.xr12.x0.t1                         0.931254
x1.xr12.x0.t2                         0.997593
vref                                  0.999934
x1.xr1.x0.t1                          0.793094
x1.xr1.x0.t2                          0.924348
x1.xr2.x0.t1                          0.651384
x1.xr2.x0.t2                          0.783737
x1.xr3.x0.t1                          0.511094
x1.xr3.x0.t2                          0.643071
x1.xr4.x0.t1                          0.368705
x1.xr4.x0.t2                          0.501993
x1.xr5.x0.t1                          0.222252
x1.xr5.x0.t2                          0.360122
x1.xr6.x0.t1                         0.0765736
x1.xr6.x0.t2                          0.213848
x1.xr7.x0.t1                        0.00207673
x1.xr7.x0.t2                         0.0696863
x1.xr8.x0.t1                        0.00210319
x1.xr8.x0.t2                         0.0698314
x1.xr9.x0.t1                          0.931241
x1.xr9.x0.t2                          0.997859
net1                                       0.5
net2                                         1
vout                                     0.375
e1_int1                                  0.375
net3                                       1.8
be1#branch                                   0
e1#branch                                    0
v3#branch                         -0.000159569
v2#branch                         -6.59492e-05
v1#branch                                    0

 Reference value :  0.00000e+00 Reference value :  3.00000e-09 Reference value :  6.00000e-09 Reference value :  2.40000e-08 Reference value :  4.80000e-08 Reference value :  7.05817e-08 Reference value :  8.72823e-08 Reference value :  1.03869e-07 Reference value :  1.19480e-07 Reference value :  1.35529e-07 Reference value :  1.56084e-07 Reference value :  1.78268e-07 Reference value :  2.06775e-07 Reference value :  2.41778e-07 Reference value :  2.86117e-07 Reference value :  3.44602e-07 Reference value :  4.28155e-07 Reference value :  4.41764e-07 Reference value :  4.68982e-07 Reference value :  4.94472e-07 Reference value :  5.13064e-07 Reference value :  5.31395e-07 Reference value :  5.49211e-07 Reference value :  5.67449e-07 Reference value :  5.88809e-07 Reference value :  6.12054e-07 Reference value :  6.39947e-07 Reference value :  6.73278e-07 Reference value :  7.14274e-07 Reference value :  7.66164e-07 Reference value :  8.31894e-07 Reference value :  9.26003e-07 Reference value :  1.02315e-06 Reference value :  1.09071e-06 Reference value :  1.15609e-06 Reference value :  1.23225e-06 Reference value :  1.30121e-06 Reference value :  1.39542e-06 Reference value :  1.49142e-06 Reference value :  1.60968e-06 Reference value :  1.62722e-06 Reference value :  1.66229e-06 Reference value :  1.69525e-06 Reference value :  1.71898e-06 Reference value :  1.74205e-06 Reference value :  1.76754e-06 Reference value :  1.79391e-06 Reference value :  1.82487e-06 Reference value :  1.85997e-06 Reference value :  1.90123e-06 Reference value :  1.95077e-06 Reference value :  2.01056e-06 Reference value :  2.08444e-06 Reference value :  2.17604e-06 Reference value :  2.29108e-06 Reference value :  2.43669e-06 Reference value :  2.62157e-06 Reference value :  2.85868e-06 Reference value :  3.16162e-06 Reference value :  3.48052e-06 Reference value :  3.64435e-06 Reference value :  3.83578e-06 Reference value :  4.05154e-06 Reference value :  4.19818e-06 Reference value :  4.33432e-06 Reference value :  4.48929e-06 Reference value :  4.50949e-06 Reference value :  4.54988e-06 Reference value :  4.55466e-06 Reference value :  4.57713e-06 Reference value :  4.59301e-06 Reference value :  4.60412e-06 Reference value :  4.61607e-06 Reference value :  4.63255e-06 Reference value :  4.65381e-06 Reference value :  4.68341e-06 Reference value :  4.72522e-06 Reference value :  4.79094e-06 Reference value :  4.90996e-06 Reference value :  5.03129e-06 Reference value :  5.11549e-06 Reference value :  5.19429e-06 Reference value :  5.29488e-06 Reference value :  5.39906e-06 Reference value :  5.51885e-06 Reference value :  5.59802e-06 Reference value :  5.67056e-06 Reference value :  5.76407e-06 Reference value :  5.85514e-06 Reference value :  5.95788e-06 Reference value :  6.02741e-06 Reference value :  6.09166e-06 Reference value :  6.17940e-06 Reference value :  6.31241e-06 Reference value :  6.48961e-06 Reference value :  6.69798e-06 Reference value :  6.84072e-06 Reference value :  6.99501e-06 Reference value :  7.21607e-06 Reference value :  7.43334e-06 Reference value :  7.86787e-06 Reference value :  8.25203e-06 Reference value :  8.78793e-06 Reference value :  9.13523e-06 Reference value :  9.45208e-06 Reference value :  9.76753e-06 Reference value :  1.00071e-05 Reference value :  1.02393e-05 Reference value :  1.03417e-05 Reference value :  1.04684e-05 Reference value :  1.04709e-05 Reference value :  1.04759e-05 Reference value :  1.04859e-05 Reference value :  1.04962e-05 Reference value :  1.05036e-05 Reference value :  1.05115e-05 Reference value :  1.05185e-05 Reference value :  1.05261e-05 Reference value :  1.05348e-05 Reference value :  1.05441e-05 Reference value :  1.05558e-05 Reference value :  1.05697e-05 Reference value :  1.05872e-05 Reference value :  1.06114e-05 Reference value :  1.06482e-05 Reference value :  1.07114e-05 Reference value :  1.08349e-05 Reference value :  1.10003e-05 Reference value :  1.11518e-05 Reference value :  1.12636e-05 Reference value :  1.13661e-05 Reference value :  1.14916e-05 Reference value :  1.15135e-05 Reference value :  1.15571e-05 Reference value :  1.16443e-05 Reference value :  1.17332e-05 Reference value :  1.17948e-05 Reference value :  1.18528e-05 Reference value :  1.19292e-05 Reference value :  1.20122e-05 Reference value :  1.21206e-05 Reference value :  1.22646e-05 Reference value :  1.24605e-05 Reference value :  1.27618e-05 Reference value :  1.32304e-05 Reference value :  1.36464e-05 Reference value :  1.37984e-05 Reference value :  1.39910e-05 Reference value :  1.41768e-05 Reference value :  1.43113e-05 Reference value :  1.44348e-05 Reference value :  1.45877e-05 Reference value :  1.46888e-05 Reference value :  1.47825e-05 Reference value :  1.48874e-05 Reference value :  1.49961e-05 Reference value :  1.50093e-05 Reference value :  1.50357e-05 Reference value :  1.50837e-05 Reference value :  1.51325e-05 Reference value :  1.51866e-05 Reference value :  1.52949e-05 Reference value :  1.54400e-05 Reference value :  1.55758e-05 Reference value :  1.56712e-05 Reference value :  1.57577e-05 Reference value :  1.58668e-05 Reference value :  1.59901e-05 Reference value :  1.60712e-05 Reference value :  1.61461e-05 Reference value :  1.62445e-05 Reference value :  1.63724e-05 Reference value :  1.65359e-05 Reference value :  1.67108e-05 Reference value :  1.68340e-05 Reference value :  1.69677e-05 Reference value :  1.71380e-05 Reference value :  1.73683e-05 Reference value :  1.78289e-05 Reference value :  1.84289e-05 Reference value :  1.88365e-05 Reference value :  1.92063e-05 Reference value :  1.93962e-05 Reference value :  1.96349e-05 Reference value :  1.96664e-05 Reference value :  1.97293e-05 Reference value :  1.98044e-05 Reference value :  1.98872e-05 Reference value :  2.00196e-05 Reference value :  2.00372e-05 Reference value :  2.00724e-05 Reference value :  2.00923e-05 Reference value :  2.01118e-05 Reference value :  2.01315e-05 Reference value :  2.01515e-05 Reference value :  2.01744e-05 Reference value :  2.02001e-05 Reference value :  2.02310e-05 Reference value :  2.02690e-05 Reference value :  2.03166e-05 Reference value :  2.03785e-05 Reference value :  2.04593e-05 Reference value :  2.05444e-05 Reference value :  2.06032e-05 Reference value :  2.06580e-05 Reference value :  2.07298e-05 Reference value :  2.08241e-05 Reference value :  2.09538e-05 Reference value :  2.10997e-05 Reference value :  2.11977e-05 Reference value :  2.12888e-05 Reference value :  2.14077e-05 Reference value :  2.15741e-05 Reference value :  2.17518e-05 Reference value :  2.18737e-05 Reference value :  2.19873e-05 Reference value :  2.21351e-05 Reference value :  2.23349e-05 Reference value :  2.25862e-05 Reference value :  2.29634e-05 Reference value :  2.30357e-05 Reference value :  2.31804e-05 Reference value :  2.33760e-05 Reference value :  2.35855e-05 Reference value :  2.37275e-05 Reference value :  2.38582e-05 Reference value :  2.40245e-05 Reference value :  2.42044e-05 Reference value :  2.43248e-05 Reference value :  2.44353e-05 Reference value :  2.45749e-05 Reference value :  2.46658e-05 Reference value :  2.47503e-05 Reference value :  2.48366e-05 Reference value :  2.49288e-05 Reference value :  2.50328e-05 Reference value :  2.51030e-05 Reference value :  2.51679e-05 Reference value :  2.52535e-05 Reference value :  2.53403e-05 Reference value :  2.54643e-05 Reference value :  2.55691e-05 Reference value :  2.56453e-05 Reference value :  2.57258e-05 Reference value :  2.58144e-05 Reference value :  2.59245e-05 Reference value :  2.60341e-05 Reference value :  2.61099e-05 Reference value :  2.61839e-05 Reference value :  2.62739e-05 Reference value :  2.64083e-05 Reference value :  2.66131e-05 Reference value :  2.67978e-05 Reference value :  2.69421e-05 Reference value :  2.70824e-05 Reference value :  2.72688e-05 Reference value :  2.76417e-05 Reference value :  2.82417e-05 Reference value :  2.88417e-05 Reference value :  2.91329e-05 Reference value :  2.93875e-05 Reference value :  2.95966e-05 Reference value :  2.97195e-05 Reference value :  2.98373e-05 Reference value :  2.99591e-05 Reference value :  3.00000e-05
No. of Data Rows : 268
Note: Simulation executed from .control section 


Note: No compatibility mode selected!


Circuit: ** sch_path: /home/bmott/ttsky25b_tiny_chaos/xsch/tb/adc/tt_um_3bit_flash_adc_tran_corners.sch

Doing analysis at TEMP = 27.000000 and TNOM = 27.000000

Using SPARSE 1.3 as Direct Linear Solver

Initial Transient Solution
--------------------------

Node                                   Voltage
----                                   -------
x1.x2.latch_left                      0.627358
x1.ref0                              0.0744819
x1.x2.tail                            0.668855
vdd                                    1.79984
x1.x2.latch_right                  3.60059e-05
vin                                        0.5
x1.bias_p                              1.12948
x1.d0                                  1.79984
x1.x2.out_left                         1.04726
x1.x3.latch_left                      0.627215
x1.ref1                                 0.2147
x1.x3.tail                            0.747869
x1.x3.latch_right                   0.00046034
x1.d1                                  1.79984
x1.x3.out_left                          1.0497
x1.x4.latch_left                      0.614491
x1.ref2                               0.350041
x1.x4.tail                            0.846323
x1.x4.latch_right                   0.00991093
x1.d2                                  1.79984
x1.x4.out_left                         1.07065
x1.x5.latch_left                      0.564357
x1.ref3                               0.499952
x1.x5.tail                            0.921478
x1.x5.latch_right                     0.351475
x1.d3                                  1.79839
x1.x5.out_left                         1.15138
x1.x6.latch_left                    0.00973874
x1.ref4                                0.63891
x1.x6.tail                            0.963191
x1.x6.latch_right                     0.618515
x1.d4                              2.65238e-07
x1.x6.out_left                         1.79006
x1.x7.latch_left                   0.000256714
x1.ref5                               0.780787
x1.x7.tail                            0.966041
x1.x7.latch_right                     0.619334
x1.d5                              2.61933e-07
x1.x7.out_left                          1.7891
x1.x8.latch_left                   3.41828e-06
x1.ref6                               0.927192
x1.x8.tail                            0.964645
x1.x8.latch_right                     0.621583
x1.d6                              2.88968e-07
x1.x8.out_left                         1.79075
x1.x9.bias_1                          0.997063
x1.x9.xr_bias_1.x0.t1                 0.997885
x1.x9.xr_bias_1.x0.t2                  1.12861
x1.bias_n                             0.601227
x1.x9.bias_2                          0.864781
x1.x9.xr_bias_2.x0.t1                 0.865676
x1.x9.xr_bias_2.x0.t2                 0.996225
x1.x9.bias_3                          0.733258
x1.x9.xr_bias_3.x0.t1                 0.734055
x1.x9.xr_bias_3.x0.t2                   0.8639
x1.x9.xr_bias_4.x0.t1                 0.602064
x1.x9.xr_bias_4.x0.t2                 0.732372
x1.x1.y2                               1.79984
x1.x1.x3                               1.79984
x1.x1.x1.net1                      2.76482e-07
x1.x1.x6                           7.83599e-07
x1.x1.net2                         1.17664e-06
x1.x1.x2                               1.79984
x1.x1.x2.net1                      3.56827e-07
x1.x1.x5                           8.36614e-07
x1.x1.y1                           1.27609e-06
x1.x1.x1                               1.79984
x1.x1.x3.net1                      4.26934e-07
x1.x1.x4                             7.129e-07
x1.x1.net1                          1.0904e-06
x1.x1.x0                               1.79984
x1.x1.x4.net1                          1.79984
x1.x1.y0                           1.09515e-06
x1.x1.x5.net1                      4.09578e-07
x1.x1.x6.net1                      4.94557e-07
x1.x1.x7.net1                      4.14505e-07
x1.x1.x8.net1                      3.61454e-07
x1.x1.x9.net1                          1.79984
x1.x1.x10.net1                         1.79984
x1.x1.x11.net1                         1.79984
x1.x1.x12.net1                         1.79984
d0                                 4.76469e-07
x1.x1.x13.net1                         1.79984
d1                                 4.51749e-07
x1.x1.x14.net1                     3.92745e-07
d2                                     1.79984
x1.xr12.x0.t1                         0.929458
x1.xr12.x0.t2                         0.997613
vref                                  0.999932
x1.xr1.x0.t1                          0.785427
x1.xr1.x0.t2                           0.92229
x1.xr2.x0.t1                          0.643729
x1.xr2.x0.t2                          0.776089
x1.xr3.x0.t1                          0.504714
x1.xr3.x0.t2                          0.634234
x1.xr4.x0.t1                          0.354905
x1.xr4.x0.t2                           0.49524
x1.xr5.x0.t1                          0.219293
x1.xr5.x0.t2                          0.345353
x1.xr6.x0.t1                         0.0787549
x1.xr6.x0.t2                          0.210124
x1.xr7.x0.t1                         0.0023799
x1.xr7.x0.t2                         0.0720889
x1.xr8.x0.t1                        0.00236934
x1.xr8.x0.t2                         0.0722243
x1.xr9.x0.t1                          0.929546
x1.xr9.x0.t2                          0.997666
net1                                       0.5
net2                                         1
vout                                       0.5
e1_int1                                    0.5
net3                                       1.8
be1#branch                                   0
e1#branch                                    0
v3#branch                         -0.000160268
v2#branch                          -6.8413e-05
v1#branch                                    0

 Reference value :  0.00000e+00 Reference value :  3.00000e-09 Reference value :  6.00000e-09 Reference value :  2.40000e-08 Reference value :  8.81794e-08 Reference value :  1.45448e-07 Reference value :  2.36509e-07 Reference value :  3.21020e-07 Reference value :  4.42757e-07 Reference value :  4.61062e-07 Reference value :  4.97671e-07 Reference value :  5.20517e-07 Reference value :  5.41157e-07 Reference value :  5.61889e-07 Reference value :  5.82925e-07 Reference value :  6.05548e-07 Reference value :  6.31075e-07 Reference value :  6.60528e-07 Reference value :  6.95901e-07 Reference value :  7.39680e-07 Reference value :  7.95253e-07 Reference value :  8.73416e-07 Reference value :  9.67741e-07 Reference value :  9.82054e-07 Reference value :  1.01068e-06 Reference value :  1.02861e-06 Reference value :  1.04497e-06 Reference value :  1.06113e-06 Reference value :  1.07783e-06 Reference value :  1.09692e-06 Reference value :  1.11865e-06 Reference value :  1.14502e-06 Reference value :  1.17762e-06 Reference value :  1.21919e-06 Reference value :  1.27350e-06 Reference value :  1.35603e-06 Reference value :  1.49437e-06 Reference value :  1.67515e-06 Reference value :  1.86144e-06 Reference value :  1.99198e-06 Reference value :  2.11269e-06 Reference value :  2.26797e-06 Reference value :  2.53067e-06 Reference value :  2.90787e-06 Reference value :  3.32296e-06 Reference value :  3.57991e-06 Reference value :  3.81555e-06 Reference value :  4.07475e-06 Reference value :  4.26816e-06 Reference value :  4.47046e-06 Reference value :  4.49990e-06 Reference value :  4.55879e-06 Reference value :  4.57351e-06 Reference value :  4.60296e-06 Reference value :  4.62045e-06 Reference value :  4.63697e-06 Reference value :  4.65830e-06 Reference value :  4.67857e-06 Reference value :  4.71044e-06 Reference value :  4.74548e-06 Reference value :  4.79359e-06 Reference value :  4.86616e-06 Reference value :  4.97656e-06 Reference value :  5.09380e-06 Reference value :  5.17411e-06 Reference value :  5.24875e-06 Reference value :  5.34591e-06 Reference value :  5.46219e-06 Reference value :  5.58628e-06 Reference value :  5.67064e-06 Reference value :  5.74813e-06 Reference value :  5.84697e-06 Reference value :  5.97815e-06 Reference value :  6.11265e-06 Reference value :  6.20398e-06 Reference value :  6.28713e-06 Reference value :  6.39467e-06 Reference value :  6.52463e-06 Reference value :  6.68548e-06 Reference value :  6.79262e-06 Reference value :  6.90781e-06 Reference value :  7.05548e-06 Reference value :  7.29550e-06 Reference value :  7.77554e-06 Reference value :  8.37554e-06 Reference value :  8.97554e-06 Reference value :  9.39474e-06 Reference value :  9.64683e-06 Reference value :  9.67723e-06 Reference value :  9.73803e-06 Reference value :  9.83585e-06 Reference value :  9.93934e-06 Reference value :  9.96053e-06 Reference value :  1.00029e-05 Reference value :  1.00428e-05 Reference value :  1.00714e-05 Reference value :  1.00992e-05 Reference value :  1.01320e-05 Reference value :  1.01621e-05 Reference value :  1.01989e-05 Reference value :  1.02385e-05 Reference value :  1.02842e-05 Reference value :  1.03388e-05 Reference value :  1.04032e-05 Reference value :  1.04132e-05 Reference value :  1.04331e-05 Reference value :  1.04731e-05 Reference value :  1.04800e-05 Reference value :  1.04938e-05 Reference value :  1.05075e-05 Reference value :  1.05170e-05 Reference value :  1.05267e-05 Reference value :  1.05360e-05 Reference value :  1.05458e-05 Reference value :  1.05565e-05 Reference value :  1.05685e-05 Reference value :  1.05825e-05 Reference value :  1.05993e-05 Reference value :  1.06201e-05 Reference value :  1.06462e-05 Reference value :  1.06802e-05 Reference value :  1.07320e-05 Reference value :  1.08157e-05 Reference value :  1.09475e-05 Reference value :  1.10777e-05 Reference value :  1.11698e-05 Reference value :  1.12552e-05 Reference value :  1.13642e-05 Reference value :  1.15205e-05 Reference value :  1.16878e-05 Reference value :  1.18769e-05 Reference value :  1.20050e-05 Reference value :  1.21232e-05 Reference value :  1.22777e-05 Reference value :  1.25247e-05 Reference value :  1.28634e-05 Reference value :  1.32651e-05 Reference value :  1.37005e-05 Reference value :  1.39679e-05 Reference value :  1.42204e-05 Reference value :  1.44429e-05 Reference value :  1.44683e-05 Reference value :  1.45190e-05 Reference value :  1.45317e-05 Reference value :  1.45571e-05 Reference value :  1.45634e-05 Reference value :  1.45761e-05 Reference value :  1.45896e-05 Reference value :  1.46001e-05 Reference value :  1.46095e-05 Reference value :  1.46192e-05 Reference value :  1.46303e-05 Reference value :  1.46485e-05 Reference value :  1.46707e-05 Reference value :  1.47151e-05 Reference value :  1.48040e-05 Reference value :  1.49816e-05 Reference value :  1.50030e-05 Reference value :  1.50459e-05 Reference value :  1.50690e-05 Reference value :  1.50928e-05 Reference value :  1.51185e-05 Reference value :  1.51511e-05 Reference value :  1.51921e-05 Reference value :  1.52442e-05 Reference value :  1.53149e-05 Reference value :  1.54223e-05 Reference value :  1.55301e-05 Reference value :  1.56059e-05 Reference value :  1.56761e-05 Reference value :  1.57576e-05 Reference value :  1.58418e-05 Reference value :  1.59618e-05 Reference value :  1.60842e-05 Reference value :  1.61679e-05 Reference value :  1.62446e-05 Reference value :  1.63424e-05 Reference value :  1.64723e-05 Reference value :  1.66267e-05 Reference value :  1.67560e-05 Reference value :  1.68925e-05 Reference value :  1.70243e-05 Reference value :  1.71828e-05 Reference value :  1.74997e-05 Reference value :  1.80409e-05 Reference value :  1.84746e-05 Reference value :  1.87740e-05 Reference value :  1.90247e-05 Reference value :  1.92161e-05 Reference value :  1.93576e-05 Reference value :  1.95040e-05 Reference value :  1.96246e-05 Reference value :  1.96892e-05 Reference value :  1.97602e-05 Reference value :  1.98444e-05 Reference value :  1.99761e-05 Reference value :  2.00641e-05 Reference value :  2.01216e-05 Reference value :  2.01783e-05 Reference value :  2.02458e-05 Reference value :  2.03228e-05 Reference value :  2.04585e-05 Reference value :  2.04745e-05 Reference value :  2.05066e-05 Reference value :  2.05245e-05 Reference value :  2.05421e-05 Reference value :  2.05607e-05 Reference value :  2.05797e-05 Reference value :  2.06014e-05 Reference value :  2.06261e-05 Reference value :  2.06555e-05 Reference value :  2.06916e-05 Reference value :  2.07367e-05 Reference value :  2.07946e-05 Reference value :  2.08697e-05 Reference value :  2.09690e-05 Reference value :  2.10808e-05 Reference value :  2.11558e-05 Reference value :  2.12257e-05 Reference value :  2.13173e-05 Reference value :  2.14292e-05 Reference value :  2.15641e-05 Reference value :  2.17196e-05 Reference value :  2.18237e-05 Reference value :  2.19240e-05 Reference value :  2.20210e-05 Reference value :  2.21285e-05 Reference value :  2.22840e-05 Reference value :  2.24480e-05 Reference value :  2.26734e-05 Reference value :  2.29692e-05 Reference value :  2.32999e-05 Reference value :  2.35480e-05 Reference value :  2.36879e-05 Reference value :  2.38470e-05 Reference value :  2.40212e-05 Reference value :  2.41774e-05 Reference value :  2.42605e-05 Reference value :  2.43560e-05 Reference value :  2.44602e-05 Reference value :  2.44862e-05 Reference value :  2.45383e-05 Reference value :  2.45513e-05 Reference value :  2.45774e-05 Reference value :  2.45819e-05 Reference value :  2.45909e-05 Reference value :  2.45967e-05 Reference value :  2.46033e-05 Reference value :  2.46096e-05 Reference value :  2.46166e-05 Reference value :  2.46307e-05 Reference value :  2.46444e-05 Reference value :  2.46717e-05 Reference value :  2.47142e-05 Reference value :  2.47991e-05 Reference value :  2.49580e-05 Reference value :  2.51112e-05 Reference value :  2.52202e-05 Reference value :  2.53219e-05 Reference value :  2.54496e-05 Reference value :  2.55887e-05 Reference value :  2.56827e-05 Reference value :  2.57694e-05 Reference value :  2.58811e-05 Reference value :  2.60037e-05 Reference value :  2.61419e-05 Reference value :  2.62345e-05 Reference value :  2.63331e-05 Reference value :  2.64455e-05 Reference value :  2.66116e-05 Reference value :  2.67768e-05 Reference value :  2.69058e-05 Reference value :  2.70437e-05 Reference value :  2.72147e-05 Reference value :  2.75567e-05 Reference value :  2.80970e-05 Reference value :  2.85640e-05 Reference value :  2.88582e-05 Reference value :  2.90923e-05 Reference value :  2.92969e-05 Reference value :  2.94980e-05 Reference value :  2.97138e-05 Reference value :  2.98692e-05 Reference value :  3.00000e-05
No. of Data Rows : 286
Note: Simulation executed from .control section 


Note: No compatibility mode selected!


Circuit: ** sch_path: /home/bmott/ttsky25b_tiny_chaos/xsch/tb/adc/tt_um_3bit_flash_adc_tran_corners.sch

Doing analysis at TEMP = 27.000000 and TNOM = 27.000000

Using SPARSE 1.3 as Direct Linear Solver

Initial Transient Solution
--------------------------

Node                                   Voltage
----                                   -------
x1.x2.latch_left                      0.627065
x1.ref0                              0.0727365
x1.x2.tail                            0.668328
vdd                                    1.79985
x1.x2.latch_right                  3.30007e-05
vin                                        0.5
x1.bias_p                              1.12994
x1.d0                                  1.79985
x1.x2.out_left                         1.05416
x1.x3.latch_left                      0.630859
x1.ref1                               0.217515
x1.x3.tail                             0.75374
x1.x3.latch_right                  0.000658601
x1.d1                                  1.79985
x1.x3.out_left                         1.04876
x1.x4.latch_left                      0.612455
x1.ref2                               0.357942
x1.x4.tail                            0.846055
x1.x4.latch_right                    0.0102234
x1.d2                                  1.79985
x1.x4.out_left                         1.07915
x1.x5.latch_left                       0.32008
x1.ref3                               0.504429
x1.x5.tail                            0.922765
x1.x5.latch_right                     0.564799
x1.d3                              0.000698932
x1.x5.out_left                         1.49029
x1.x6.latch_left                     0.0105137
x1.ref4                               0.641073
x1.x6.tail                            0.961436
x1.x6.latch_right                     0.608422
x1.d4                              2.85912e-07
x1.x6.out_left                         1.78966
x1.x7.latch_left                   0.000371769
x1.ref5                                0.77796
x1.x7.tail                            0.970372
x1.x7.latch_right                     0.626208
x1.d5                               2.4388e-07
x1.x7.out_left                         1.78901
x1.x8.latch_left                   3.64516e-06
x1.ref6                               0.930369
x1.x8.tail                            0.967757
x1.x8.latch_right                     0.621306
x1.d6                              2.17314e-07
x1.x8.out_left                         1.79143
x1.x9.bias_1                          0.999296
x1.x9.xr_bias_1.x0.t1                  1.00021
x1.x9.xr_bias_1.x0.t2                  1.12908
x1.bias_n                              0.60508
x1.x9.bias_2                          0.867689
x1.x9.xr_bias_2.x0.t1                 0.868564
x1.x9.xr_bias_2.x0.t2                 0.998384
x1.x9.bias_3                          0.736623
x1.x9.xr_bias_3.x0.t1                 0.737431
x1.x9.xr_bias_3.x0.t2                 0.866767
x1.x9.xr_bias_4.x0.t1                  0.60587
x1.x9.xr_bias_4.x0.t2                 0.735701
x1.x1.y2                           5.14665e-07
x1.x1.x3                           5.14665e-07
x1.x1.x1.net1                          1.79985
x1.x1.x6                           1.01052e-06
x1.x1.net2                             1.79985
x1.x1.x2                               1.79985
x1.x1.x2.net1                          1.79985
x1.x1.x5                           7.53199e-07
x1.x1.y1                               1.79985
x1.x1.x1                               1.79985
x1.x1.x3.net1                          1.79985
x1.x1.x4                           9.36933e-07
x1.x1.net1                             1.79985
x1.x1.x0                               1.79985
x1.x1.x4.net1                       4.1118e-07
x1.x1.y0                               1.79985
x1.x1.x5.net1                      4.33673e-07
x1.x1.x6.net1                      5.05321e-07
x1.x1.x7.net1                      3.86718e-07
x1.x1.x8.net1                          1.79985
x1.x1.x9.net1                          1.79985
x1.x1.x10.net1                         1.79985
x1.x1.x11.net1                         1.79985
x1.x1.x12.net1                     2.85889e-07
d0                                     1.79985
x1.x1.x13.net1                     2.88977e-07
d1                                     1.79985
x1.x1.x14.net1                         1.79985
d2                                 5.03611e-07
x1.xr12.x0.t1                         0.932352
x1.xr12.x0.t2                         0.997732
vref                                  0.999933
x1.xr1.x0.t1                          0.782644
x1.xr1.x0.t2                           0.92607
x1.xr2.x0.t1                          0.646044
x1.xr2.x0.t2                          0.773493
x1.xr3.x0.t1                           0.50926
x1.xr3.x0.t2                          0.636645
x1.xr4.x0.t1                          0.362249
x1.xr4.x0.t2                          0.500245
x1.xr5.x0.t1                          0.222482
x1.xr5.x0.t2                          0.353298
x1.xr6.x0.t1                         0.0771468
x1.xr6.x0.t2                          0.212837
x1.xr7.x0.t1                         0.0024133
x1.xr7.x0.t2                         0.0705084
x1.xr8.x0.t1                        0.00243232
x1.xr8.x0.t2                         0.0702217
x1.xr9.x0.t1                          0.932684
x1.xr9.x0.t2                          0.997819
net1                                       0.5
net2                                         1
vout                                     0.375
e1_int1                                  0.375
net3                                       1.8
be1#branch                                   0
e1#branch                                    0
v3#branch                         -0.000151023
v2#branch                         -6.66085e-05
v1#branch                                    0

[...]
No. of Data Rows : 222
Note: Simulation executed from .control section 


Note: No compatibility mode selected!


Circuit: ** sch_path: /home/bmott/ttsky25b_tiny_chaos/xsch/tb/adc/tt_um_3bit_flash_adc_tran_corners.sch

Doing analysis at TEMP = 27.000000 and TNOM = 27.000000

Using SPARSE 1.3 as Direct Linear Solver

Initial Transient Solution
--------------------------

Node                                   Voltage
----                                   -------
x1.x2.latch_left                       0.62692
x1.ref0                              0.0716857
x1.x2.tail                            0.669621
vdd                                    1.79983
x1.x2.latch_right                  3.95098e-05
vin                                        0.5
x1.bias_p                              1.12432
x1.d0                                  1.79983
x1.x2.out_left                         1.04417
x1.x3.latch_left                      0.623915
x1.ref1                               0.209943
x1.x3.tail                             0.74868
x1.x3.latch_right                  0.000530941
x1.d1                                  1.79983
x1.x3.out_left                         1.05404
x1.x4.latch_left                      0.618026
x1.ref2                               0.353702
x1.x4.tail                            0.850282
x1.x4.latch_right                    0.0117713
x1.d2                                  1.79983
x1.x4.out_left                         1.07393
x1.x5.latch_left                      0.561761
x1.ref3                               0.499329
x1.x5.tail                            0.930527
x1.x5.latch_right                     0.425481
x1.d3                                  1.79073
x1.x5.out_left                          1.1562
x1.x6.latch_left                     0.0116404
x1.ref4                               0.640382
x1.x6.tail                            0.967495
x1.x6.latch_right                     0.618657
x1.d4                              2.18366e-07
x1.x6.out_left                         1.79081
x1.x7.latch_left                   0.000312973
x1.ref5                               0.785466
x1.x7.tail                            0.973982
x1.x7.latch_right                     0.626212
x1.d5                              1.91926e-07
x1.x7.out_left                         1.79011
x1.x8.latch_left                   5.34526e-06
x1.ref6                               0.928895
x1.x8.tail                             0.97296
x1.x8.latch_right                     0.625144
x1.d6                                2.307e-07
x1.x8.out_left                         1.79098
x1.x9.bias_1                          0.993599
x1.x9.xr_bias_1.x0.t1                  0.99445
x1.x9.xr_bias_1.x0.t2                  1.12346
x1.bias_n                              0.60176
x1.x9.bias_2                          0.861221
x1.x9.xr_bias_2.x0.t1                  0.86213
x1.x9.xr_bias_2.x0.t2                 0.992686
x1.x9.bias_3                          0.730361
x1.x9.xr_bias_3.x0.t1                 0.731185
x1.x9.xr_bias_3.x0.t2                 0.860402
x1.x9.xr_bias_4.x0.t1                 0.602597
x1.x9.xr_bias_4.x0.t2                 0.729545
x1.x1.y2                               1.79983
x1.x1.x3                               1.79983
x1.x1.x1.net1                       3.6987e-07
x1.x1.x6                           8.51453e-07
x1.x1.net2                         1.17506e-06
x1.x1.x2                               1.79983
x1.x1.x2.net1                      4.14011e-07
x1.x1.x5                           6.88617e-07
x1.x1.y1                           9.90478e-07
x1.x1.x1                               1.79983
x1.x1.x3.net1                      5.26762e-07
x1.x1.x4                            1.0046e-06
x1.x1.net1                         1.44647e-06
x1.x1.x0                               1.79983
x1.x1.x4.net1                          1.79983
x1.x1.y0                           1.45112e-06
x1.x1.x5.net1                      4.36876e-07
x1.x1.x6.net1                      4.11817e-07
x1.x1.x7.net1                      4.08825e-07
x1.x1.x8.net1                      4.51676e-07
x1.x1.x9.net1                          1.79983
x1.x1.x10.net1                         1.79983
x1.x1.x11.net1                         1.79983
x1.x1.x12.net1                         1.79983
d0                                 5.76196e-07
x1.x1.x13.net1                         1.79983
d1                                 3.08281e-07
x1.x1.x14.net1                     3.06124e-07
d2                                     1.79983
x1.xr12.x0.t1                         0.931224
x1.xr12.x0.t2                           0.9976
vref                                  0.999933
x1.xr1.x0.t1                          0.790312
x1.xr1.x0.t2                          0.924117
x1.xr2.x0.t1                          0.644626
x1.xr2.x0.t2                          0.781053
x1.xr3.x0.t1                          0.503848
x1.xr3.x0.t2                          0.635776
x1.xr4.x0.t1                          0.358463
x1.xr4.x0.t2                           0.49452
x1.xr5.x0.t1                           0.21454
x1.xr5.x0.t2                           0.34969
x1.xr6.x0.t1                         0.0762277
x1.xr6.x0.t2                          0.205607
x1.xr7.x0.t1                         0.0022812
x1.xr7.x0.t2                         0.0696353
x1.xr8.x0.t1                        0.00235871
x1.xr8.x0.t2                         0.0693037
x1.xr9.x0.t1                          0.931032
x1.xr9.x0.t2                          0.997524
net1                                       0.5
net2                                         1
vout                                       0.5
e1_int1                                    0.5
net3                                       1.8
be1#branch                                   0
e1#branch                                    0
v3#branch                         -0.000165287
v2#branch                         -6.68785e-05
v1#branch                                    0

 Reference value :  0.00000e+00 Reference value :  3.00000e-09 Reference value :  1.20000e-08 Reference value :  2.40000e-08 Reference value :  4.80000e-08 Reference value :  8.46340e-08 Reference value :  1.48761e-07 Reference value :  2.20278e-07 Reference value :  2.99827e-07 Reference value :  4.11868e-07 Reference value :  5.30421e-07 Reference value :  6.12059e-07 Reference value :  6.88024e-07 Reference value :  7.86601e-07 Reference value :  9.15434e-07 Reference value :  1.05155e-06 Reference value :  1.14565e-06 Reference value :  1.23321e-06 Reference value :  1.34725e-06 Reference value :  1.49226e-06 Reference value :  1.64871e-06 Reference value :  1.75610e-06 Reference value :  1.85785e-06 Reference value :  1.98193e-06 Reference value :  2.10949e-06 Reference value :  2.29115e-06 Reference value :  2.51989e-06 Reference value :  2.82996e-06 Reference value :  3.24690e-06 Reference value :  3.84029e-06 Reference value :  3.89132e-06 Reference value :  3.99337e-06 Reference value :  4.09057e-06 Reference value :  4.15951e-06 Reference value :  4.22353e-06 Reference value :  4.29577e-06 Reference value :  4.37058e-06 Reference value :  4.52019e-06 Reference value :  4.53788e-06 Reference value :  4.57324e-06 Reference value :  4.60670e-06 Reference value :  4.63060e-06 Reference value :  4.65302e-06 Reference value :  4.67661e-06 Reference value :  4.70495e-06 Reference value :  4.74176e-06 Reference value :  4.78853e-06 Reference value :  4.85542e-06 Reference value :  4.96000e-06 Reference value :  4.97655e-06 Reference value :  5.00966e-06 Reference value :  5.04112e-06 Reference value :  5.06359e-06 Reference value :  5.08467e-06 Reference value :  5.11007e-06 Reference value :  5.13955e-06 Reference value :  5.17778e-06 Reference value :  5.22647e-06 Reference value :  5.29445e-06 Reference value :  5.40016e-06 Reference value :  5.51347e-06 Reference value :  5.59048e-06 Reference value :  5.66201e-06 Reference value :  5.74610e-06 Reference value :  5.83082e-06 Reference value :  5.95185e-06 Reference value :  6.07577e-06 Reference value :  6.16006e-06 Reference value :  6.23823e-06 Reference value :  6.33967e-06 Reference value :  6.49495e-06 Reference value :  6.65823e-06 Reference value :  6.77287e-06 Reference value :  6.89680e-06 Reference value :  7.06158e-06 Reference value :  7.25254e-06 Reference value :  7.63445e-06 Reference value :  8.23445e-06 Reference value :  8.83445e-06 Reference value :  9.28760e-06 Reference value :  9.55094e-06 Reference value :  9.79043e-06 Reference value :  9.81972e-06 Reference value :  9.87830e-06 Reference value :  9.97592e-06 Reference value :  1.00770e-05 Reference value :  1.01471e-05 Reference value :  1.02138e-05 Reference value :  1.03017e-05 Reference value :  1.04038e-05 Reference value :  1.05195e-05 Reference value :  1.05974e-05 Reference value :  1.06699e-05 Reference value :  1.07659e-05 Reference value :  1.08863e-05 Reference value :  1.10137e-05 Reference value :  1.11018e-05 Reference value :  1.11856e-05 Reference value :  1.12821e-05 Reference value :  1.13837e-05 Reference value :  1.15201e-05 Reference value :  1.16635e-05 Reference value :  1.17628e-05 Reference value :  1.18563e-05 Reference value :  1.19808e-05 Reference value :  1.21068e-05 Reference value :  1.22938e-05 Reference value :  1.25164e-05 Reference value :  1.28073e-05 Reference value :  1.31924e-05 Reference value :  1.37293e-05 Reference value :  1.40818e-05 Reference value :  1.42454e-05 Reference value :  1.44071e-05 Reference value :  1.45762e-05 Reference value :  1.46594e-05 Reference value :  1.47579e-05 Reference value :  1.48529e-05 Reference value :  1.49544e-05 Reference value :  1.50610e-05 Reference value :  1.51153e-05 Reference value :  1.51786e-05 Reference value :  1.52532e-05 Reference value :  1.53267e-05 Reference value :  1.54472e-05 Reference value :  1.55710e-05 Reference value :  1.56550e-05 Reference value :  1.57324e-05 Reference value :  1.58303e-05 Reference value :  1.59564e-05 Reference value :  1.60822e-05 Reference value :  1.61677e-05 Reference value :  1.62481e-05 Reference value :  1.63503e-05 Reference value :  1.65030e-05 Reference value :  1.66694e-05 Reference value :  1.67837e-05 Reference value :  1.69068e-05 Reference value :  1.70629e-05 Reference value :  1.72930e-05 Reference value :  1.77530e-05 Reference value :  1.83530e-05 Reference value :  1.89530e-05 Reference value :  1.93922e-05 Reference value :  1.96511e-05 Reference value :  1.96876e-05 Reference value :  1.97604e-05 Reference value :  1.98460e-05 Reference value :  1.99449e-05 Reference value :  2.00532e-05 Reference value :  2.01272e-05 Reference value :  2.01977e-05 Reference value :  2.02810e-05 Reference value :  2.03683e-05 Reference value :  2.03806e-05 Reference value :  2.04053e-05 Reference value :  2.04547e-05 Reference value :  2.04605e-05 Reference value :  2.04721e-05 Reference value :  2.04816e-05 Reference value :  2.04893e-05 Reference value :  2.04976e-05 Reference value :  2.05079e-05 Reference value :  2.05188e-05 Reference value :  2.05347e-05 Reference value :  2.05544e-05 Reference value :  2.05817e-05 Reference value :  2.06206e-05 Reference value :  2.06741e-05 Reference value :  2.07532e-05 Reference value :  2.08666e-05 Reference value :  2.09829e-05 Reference value :  2.10959e-05 Reference value :  2.11775e-05 Reference value :  2.12519e-05 Reference value :  2.13458e-05 Reference value :  2.15282e-05 Reference value :  2.17151e-05 Reference value :  2.18444e-05 Reference value :  2.19654e-05 Reference value :  2.21207e-05 Reference value :  2.23394e-05 Reference value :  2.26169e-05 Reference value :  2.30430e-05 Reference value :  2.36430e-05 Reference value :  2.41735e-05 Reference value :  2.44303e-05 Reference value :  2.44620e-05 Reference value :  2.45253e-05 Reference value :  2.45844e-05 Reference value :  2.45858e-05 Reference value :  2.45942e-05 Reference value :  2.46021e-05 Reference value :  2.46249e-05 Reference value :  2.46345e-05 Reference value :  2.46470e-05 Reference value :  2.50436e-05 Reference value :  2.50580e-05 Reference value :  2.54980e-05 Reference value :  2.69120e-05 Reference value :  2.96874e-05
No. of Data Rows : 236
Note: Simulation executed from .control section 


Note: No compatibility mode selected!


Circuit: ** sch_path: /home/bmott/ttsky25b_tiny_chaos/xsch/tb/adc/tt_um_3bit_flash_adc_tran_corners.sch

Doing analysis at TEMP = 27.000000 and TNOM = 27.000000

Using SPARSE 1.3 as Direct Linear Solver

Initial Transient Solution
--------------------------

Node                                   Voltage
----                                   -------
x1.x2.latch_left                      0.639044
x1.ref0                              0.0689077
x1.x2.tail                            0.676329
vdd                                    1.79983
x1.x2.latch_right                  3.66175e-05
vin                                        0.5
x1.bias_p                              1.12322
x1.d0                                  1.79983
x1.x2.out_left                         1.03161
x1.x3.latch_left                       0.62862
x1.ref1                               0.215904
x1.x3.tail                            0.749508
x1.x3.latch_right                  0.000566619
x1.d1                                  1.79983
x1.x3.out_left                         1.04807
x1.x4.latch_left                      0.615786
x1.ref2                               0.358203
x1.x4.tail                            0.851534
x1.x4.latch_right                    0.0125897
x1.d2                                  1.79983
x1.x4.out_left                         1.06699
x1.x5.latch_left                      0.565387
x1.ref3                               0.499894
x1.x5.tail                            0.927577
x1.x5.latch_right                     0.408277
x1.d3                                  1.79403
x1.x5.out_left                         1.15506
x1.x6.latch_left                    0.00991009
x1.ref4                                0.64396
x1.x6.tail                            0.967886
x1.x6.latch_right                      0.62005
x1.d4                              2.62513e-07
x1.x6.out_left                          1.7888
x1.x7.latch_left                   0.000285671
x1.ref5                               0.786766
x1.x7.tail                            0.974341
x1.x7.latch_right                     0.631974
x1.d5                              2.51417e-07
x1.x7.out_left                         1.79078
x1.x8.latch_left                   4.69018e-06
x1.ref6                               0.928773
x1.x8.tail                            0.973935
x1.x8.latch_right                      0.62885
x1.d6                              2.54076e-07
x1.x8.out_left                         1.79047
x1.x9.bias_1                          0.995971
x1.x9.xr_bias_1.x0.t1                 0.996822
x1.x9.xr_bias_1.x0.t2                  1.12235
x1.bias_n                             0.601882
x1.x9.bias_2                          0.865405
x1.x9.xr_bias_2.x0.t1                 0.866195
x1.x9.xr_bias_2.x0.t2                  0.99512
x1.x9.bias_3                          0.733714
x1.x9.xr_bias_3.x0.t1                 0.734525
x1.x9.xr_bias_3.x0.t2                 0.864478
x1.x9.xr_bias_4.x0.t1                 0.602716
x1.x9.xr_bias_4.x0.t2                 0.732818
x1.x1.y2                               1.79983
x1.x1.x3                               1.79983
x1.x1.x1.net1                      4.40564e-07
x1.x1.x6                           9.82385e-07
x1.x1.net2                         1.51993e-06
x1.x1.x2                               1.79983
x1.x1.x2.net1                      3.73598e-07
x1.x1.x5                           9.39416e-07
x1.x1.y1                           1.52963e-06
x1.x1.x1                               1.79983
x1.x1.x3.net1                      5.57123e-07
x1.x1.x4                           8.86445e-07
x1.x1.net1                         1.33618e-06
x1.x1.x0                               1.79983
x1.x1.x4.net1                          1.79983
x1.x1.y0                            1.3409e-06
x1.x1.x5.net1                      4.07707e-07
x1.x1.x6.net1                      4.75731e-07
x1.x1.x7.net1                       5.0838e-07
x1.x1.x8.net1                      5.44763e-07
x1.x1.x9.net1                          1.79983
x1.x1.x10.net1                         1.79983
x1.x1.x11.net1                         1.79983
x1.x1.x12.net1                         1.79983
d0                                 3.03648e-07
x1.x1.x13.net1                         1.79983
d1                                 4.34663e-07
x1.x1.x14.net1                     4.21695e-07
d2                                     1.79983
x1.xr12.x0.t1                         0.931177
x1.xr12.x0.t2                         0.997741
vref                                  0.999934
x1.xr1.x0.t1                          0.791349
x1.xr1.x0.t2                           0.92418
x1.xr2.x0.t1                          0.648611
x1.xr2.x0.t2                          0.782399
x1.xr3.x0.t1                          0.504854
x1.xr3.x0.t2                          0.639616
x1.xr4.x0.t1                          0.362759
x1.xr4.x0.t2                          0.495252
x1.xr5.x0.t1                           0.22064
x1.xr5.x0.t2                          0.353545
x1.xr6.x0.t1                         0.0737763
x1.xr6.x0.t2                          0.211594
x1.xr7.x0.t1                        0.00218954
x1.xr7.x0.t2                         0.0665685
x1.xr8.x0.t1                        0.00241462
x1.xr8.x0.t2                         0.0668123
x1.xr9.x0.t1                          0.931064
x1.xr9.x0.t2                           0.99771
net1                                       0.5
net2                                         1
vout                                       0.5
e1_int1                                    0.5
net3                                       1.8
be1#branch                                   0
e1#branch                                    0
v3#branch                         -0.000171263
v2#branch                         -6.57946e-05
v1#branch                                    0

 Reference value :  0.00000e+00 Reference value :  4.51752e-07 Reference value :  4.88221e-07 Reference value :  5.72130e-07 Reference value :  1.09810e-06 Reference value :  2.04235e-06 Reference value :  4.42624e-06 Reference value :  4.56035e-06 Reference value :  5.03050e-06 Reference value :  5.58006e-06 Reference value :  6.16332e-06 Reference value :  8.32889e-06 Reference value :  9.87311e-06 Reference value :  1.01463e-05 Reference value :  1.06662e-05 Reference value :  1.15376e-05 Reference value :  1.19178e-05 Reference value :  1.33520e-05 Reference value :  1.42313e-05 Reference value :  1.42467e-05 Reference value :  1.46341e-05 Reference value :  1.55071e-05 Reference value :  1.61648e-05 Reference value :  1.77230e-05 Reference value :  1.95351e-05 Reference value :  2.02170e-05 Reference value :  2.04464e-05 Reference value :  2.04755e-05 Reference value :  2.05602e-05 Reference value :  2.08968e-05 Reference value :  2.10471e-05 Reference value :  2.15991e-05 Reference value :  2.16381e-05 Reference value :  2.18310e-05 Reference value :  2.44000e-05 Reference value :  2.44335e-05 Reference value :  2.45172e-05 Reference value :  2.45563e-05 Reference value :  2.46850e-05 Reference value :  2.49565e-05 Reference value :  2.50353e-05 Reference value :  2.59920e-05 Reference value :  2.70904e-05 Reference value :  2.94877e-05
No. of Data Rows : 257
Note: Simulation executed from .control section 

