
Note: No compatibility mode selected!


Circuit: ** sch_path: /home/bmott/ttsky25b_tiny_chaos/xsch/tb/adc/tt_um_3bit_flash_adc_tran_corners.sch

Doing analysis at TEMP = 27.000000 and TNOM = 27.000000

Using SPARSE 1.3 as Direct Linear Solver

Initial Transient Solution
--------------------------

Node                                   Voltage
----                                   -------
x1.x2.latch_left                      0.629823
x1.ref0                              0.0705319
x1.x2.tail                             0.66897
vdd                                    1.79984
x1.x2.latch_right                  2.83551e-05
vin                                        0.5
x1.bias_p                              1.12597
x1.d0                                  1.79984
x1.x2.out_left                         1.04488
x1.x3.latch_left                      0.630019
x1.ref1                               0.216747
x1.x3.tail                            0.750641
x1.x3.latch_right                   0.00052684
x1.d1                                  1.79984
x1.x3.out_left                         1.04749
x1.x4.latch_left                      0.616087
x1.ref2                               0.357742
x1.x4.tail                            0.852297
x1.x4.latch_right                    0.0129172
x1.d2                                  1.79984
x1.x4.out_left                         1.07445
x1.x5.latch_left                       0.38063
x1.ref3                               0.502873
x1.x5.tail                            0.927907
x1.x5.latch_right                     0.565954
x1.d3                               0.00361815
x1.x5.out_left                         1.39883
x1.x6.latch_left                     0.0105804
x1.ref4                               0.640243
x1.x6.tail                            0.961102
x1.x6.latch_right                     0.615627
x1.d4                              2.86594e-07
x1.x6.out_left                         1.78795
x1.x7.latch_left                   0.000219243
x1.ref5                               0.784227
x1.x7.tail                            0.966371
x1.x7.latch_right                      0.63281
x1.d5                              2.45891e-07
x1.x7.out_left                         1.78917
x1.x8.latch_left                   5.47162e-06
x1.ref6                               0.926657
x1.x8.tail                            0.973643
x1.x8.latch_right                     0.621406
x1.d6                              2.07258e-07
x1.x8.out_left                         1.78955
x1.x9.bias_1                          0.995064
x1.x9.xr_bias_1.x0.t1                 0.995878
x1.x9.xr_bias_1.x0.t2                  1.12519
x1.bias_n                             0.602286
x1.x9.bias_2                          0.863679
x1.x9.xr_bias_2.x0.t1                 0.864542
x1.x9.xr_bias_2.x0.t2                 0.994184
x1.x9.bias_3                          0.730448
x1.x9.xr_bias_3.x0.t1                 0.731331
x1.x9.xr_bias_3.x0.t2                 0.862804
x1.x9.xr_bias_4.x0.t1                 0.603059
x1.x9.xr_bias_4.x0.t2                 0.729616
x1.x1.y2                           3.97638e-07
x1.x1.x3                           3.97638e-07
x1.x1.x1.net1                          1.79984
x1.x1.x6                           5.60918e-07
x1.x1.net2                             1.79984
x1.x1.x2                               1.79984
x1.x1.x2.net1                          1.79984
x1.x1.x5                           8.76677e-07
x1.x1.y1                               1.79984
x1.x1.x1                               1.79984
x1.x1.x3.net1                          1.79984
x1.x1.x4                           9.04523e-07
x1.x1.net1                             1.79984
x1.x1.x0                               1.79984
x1.x1.x4.net1                      5.45561e-07
x1.x1.y0                               1.79984
x1.x1.x5.net1                      4.80768e-07
x1.x1.x6.net1                      2.84133e-07
x1.x1.x7.net1                      3.37728e-07
x1.x1.x8.net1                          1.79984
x1.x1.x9.net1                          1.79984
x1.x1.x10.net1                         1.79984
x1.x1.x11.net1                         1.79984
x1.x1.x12.net1                     5.21868e-07
d0                                     1.79984
x1.x1.x13.net1                      4.7132e-07
d1                                     1.79984
x1.x1.x14.net1                         1.79984
d2                                  4.1526e-07
x1.xr12.x0.t1                         0.928837
x1.xr12.x0.t2                          0.99778
vref                                  0.999933
x1.xr1.x0.t1                          0.788542
x1.xr1.x0.t2                           0.92198
x1.xr2.x0.t1                          0.644911
x1.xr2.x0.t2                          0.779351
x1.xr3.x0.t1                          0.507042
x1.xr3.x0.t2                          0.635408
x1.xr4.x0.t1                          0.362251
x1.xr4.x0.t2                          0.498382
x1.xr5.x0.t1                          0.221011
x1.xr5.x0.t2                          0.353341
x1.xr6.x0.t1                         0.0750175
x1.xr6.x0.t2                          0.211916
x1.xr7.x0.t1                        0.00212652
x1.xr7.x0.t2                         0.0682869
x1.xr8.x0.t1                        0.00254113
x1.xr8.x0.t2                          0.068378
x1.xr9.x0.t1                          0.928811
x1.xr9.x0.t2                          0.997401
net1                                       0.5
net2                                         1
vout                                     0.375
e1_int1                                  0.375
net3                                       1.8
be1#branch                                   0
e1#branch                                    0
v3#branch                         -0.000156722
v2#branch                         -6.71867e-05
v1#branch                                    0

 Reference value :  0.00000e+00 Reference value :  3.00000e-10 Reference value :  1.20000e-09 Reference value :  4.80000e-09 Reference value :  9.60000e-09 Reference value :  1.47187e-08 Reference value :  1.86120e-08 Reference value :  2.24878e-08 Reference value :  2.57849e-08 Reference value :  2.92175e-08 Reference value :  3.40578e-08 Reference value :  3.95238e-08 Reference value :  4.74014e-08 Reference value :  5.66734e-08 Reference value :  6.62497e-08 Reference value :  7.29091e-08 Reference value :  7.90626e-08 Reference value :  8.46940e-08 Reference value :  9.05773e-08 Reference value :  9.64046e-08 Reference value :  1.02757e-07 Reference value :  1.09780e-07 Reference value :  1.17802e-07 Reference value :  1.25479e-07 Reference value :  1.30724e-07 Reference value :  1.36121e-07 Reference value :  1.43103e-07 Reference value :  1.50997e-07 Reference value :  1.60354e-07 Reference value :  1.71371e-07 Reference value :  1.83068e-07 Reference value :  1.91277e-07 Reference value :  1.98990e-07 Reference value :  2.05659e-07 Reference value :  2.12771e-07 Reference value :  2.19792e-07 Reference value :  2.27561e-07 Reference value :  2.36397e-07 Reference value :  2.46687e-07 Reference value :  2.59348e-07 Reference value :  2.76312e-07 Reference value :  3.01818e-07 Reference value :  3.43276e-07 Reference value :  3.85652e-07 Reference value :  4.08270e-07 Reference value :  4.34910e-07 Reference value :  4.51402e-07 Reference value :  4.66924e-07 Reference value :  4.67545e-07 Reference value :  4.68786e-07 Reference value :  4.70262e-07 Reference value :  4.71400e-07 Reference value :  4.72586e-07 Reference value :  4.74266e-07 Reference value :  4.75953e-07 Reference value :  4.78242e-07 Reference value :  4.80959e-07 Reference value :  4.84355e-07 Reference value :  4.88748e-07 Reference value :  4.94231e-07 Reference value :  5.01387e-07 Reference value :  5.09506e-07 Reference value :  5.17882e-07 Reference value :  5.23757e-07 Reference value :  5.29872e-07 Reference value :  5.38046e-07 Reference value :  5.45903e-07 Reference value :  5.55381e-07 Reference value :  5.67097e-07 Reference value :  5.74710e-07 Reference value :  5.83071e-07 Reference value :  5.94216e-07 Reference value :  6.05300e-07 Reference value :  6.19791e-07 Reference value :  6.29242e-07 Reference value :  6.38875e-07 Reference value :  6.52387e-07 Reference value :  6.65413e-07 Reference value :  6.85108e-07 Reference value :  6.99242e-07 Reference value :  7.14293e-07 Reference value :  7.30954e-07 Reference value :  7.48629e-07 Reference value :  7.81062e-07 Reference value :  8.15060e-07 Reference value :  8.65953e-07 Reference value :  8.95605e-07 Reference value :  9.22661e-07 Reference value :  9.38535e-07 Reference value :  9.54822e-07 Reference value :  9.70623e-07 Reference value :  9.81131e-07 Reference value :  9.91016e-07 Reference value :  1.00022e-06 Reference value :  1.00981e-06 Reference value :  1.01881e-06 Reference value :  1.02461e-06 Reference value :  1.03053e-06 Reference value :  1.03484e-06 Reference value :  1.03949e-06 Reference value :  1.04409e-06 Reference value :  1.04916e-06 Reference value :  1.05537e-06 Reference value :  1.06170e-06 Reference value :  1.06626e-06 Reference value :  1.07064e-06 Reference value :  1.07410e-06 Reference value :  1.07777e-06 Reference value :  1.08205e-06 Reference value :  1.08713e-06 Reference value :  1.09439e-06 Reference value :  1.10533e-06 Reference value :  1.11628e-06 Reference value :  1.12663e-06 Reference value :  1.13371e-06 Reference value :  1.14142e-06 Reference value :  1.14940e-06 Reference value :  1.16086e-06 Reference value :  1.17294e-06 Reference value :  1.18570e-06 Reference value :  1.19443e-06 Reference value :  1.20245e-06 Reference value :  1.21122e-06 Reference value :  1.22020e-06 Reference value :  1.22971e-06 Reference value :  1.24020e-06 Reference value :  1.25175e-06 Reference value :  1.26501e-06 Reference value :  1.28034e-06 Reference value :  1.29836e-06 Reference value :  1.31985e-06 Reference value :  1.34588e-06 Reference value :  1.37666e-06 Reference value :  1.39302e-06 Reference value :  1.41220e-06 Reference value :  1.42950e-06 Reference value :  1.44147e-06 Reference value :  1.45352e-06 Reference value :  1.46753e-06 Reference value :  1.47990e-06 Reference value :  1.48803e-06 Reference value :  1.49711e-06 Reference value :  1.50742e-06 Reference value :  1.52037e-06 Reference value :  1.52809e-06 Reference value :  1.53661e-06 Reference value :  1.54648e-06 Reference value :  1.55680e-06 Reference value :  1.56489e-06 Reference value :  1.57232e-06 Reference value :  1.57999e-06 Reference value :  1.58770e-06 Reference value :  1.59824e-06 Reference value :  1.61074e-06 Reference value :  1.61985e-06 Reference value :  1.62882e-06 Reference value :  1.63757e-06 Reference value :  1.64701e-06 Reference value :  1.66065e-06 Reference value :  1.67594e-06 Reference value :  1.69759e-06 Reference value :  1.71357e-06 Reference value :  1.73047e-06 Reference value :  1.75512e-06 Reference value :  1.78769e-06 Reference value :  1.83852e-06 Reference value :  1.87538e-06 Reference value :  1.90403e-06 Reference value :  1.93466e-06 Reference value :  1.94835e-06 Reference value :  1.96564e-06 Reference value :  1.97818e-06 Reference value :  1.98727e-06 Reference value :  1.99732e-06 Reference value :  2.00661e-06 Reference value :  2.01938e-06 Reference value :  2.02860e-06 Reference value :  2.03827e-06 Reference value :  2.04828e-06 Reference value :  2.05881e-06 Reference value :  2.06695e-06 Reference value :  2.07305e-06 Reference value :  2.07978e-06 Reference value :  2.08818e-06 Reference value :  2.09707e-06 Reference value :  2.11104e-06 Reference value :  2.12099e-06 Reference value :  2.12882e-06 Reference value :  2.13714e-06 Reference value :  2.14305e-06 Reference value :  2.14936e-06 Reference value :  2.15558e-06 Reference value :  2.16226e-06 Reference value :  2.17080e-06 Reference value :  2.17976e-06 Reference value :  2.18614e-06 Reference value :  2.19268e-06 Reference value :  2.19787e-06 Reference value :  2.20328e-06 Reference value :  2.20888e-06 Reference value :  2.21505e-06 Reference value :  2.22267e-06 Reference value :  2.23196e-06 Reference value :  2.24415e-06 Reference value :  2.26164e-06 Reference value :  2.29011e-06 Reference value :  2.34166e-06 Reference value :  2.39377e-06 Reference value :  2.42082e-06 Reference value :  2.44027e-06 Reference value :  2.46325e-06 Reference value :  2.46624e-06 Reference value :  2.47224e-06 Reference value :  2.47613e-06 Reference value :  2.48025e-06 Reference value :  2.48440e-06 Reference value :  2.48872e-06 Reference value :  2.49411e-06 Reference value :  2.50013e-06 Reference value :  2.50791e-06 Reference value :  2.51635e-06 Reference value :  2.52199e-06 Reference value :  2.52785e-06 Reference value :  2.53431e-06 Reference value :  2.54100e-06 Reference value :  2.54970e-06 Reference value :  2.55947e-06 Reference value :  2.56610e-06 Reference value :  2.57238e-06 Reference value :  2.57943e-06 Reference value :  2.58596e-06 Reference value :  2.59494e-06 Reference value :  2.60469e-06 Reference value :  2.61610e-06 Reference value :  2.62352e-06 Reference value :  2.63156e-06 Reference value :  2.64097e-06 Reference value :  2.65053e-06 Reference value :  2.66304e-06 Reference value :  2.67752e-06 Reference value :  2.69597e-06 Reference value :  2.71015e-06 Reference value :  2.72493e-06 Reference value :  2.74525e-06 Reference value :  2.77267e-06 Reference value :  2.80667e-06 Reference value :  2.83497e-06 Reference value :  2.85841e-06 Reference value :  2.88333e-06 Reference value :  2.90636e-06 Reference value :  2.92800e-06 Reference value :  2.94001e-06 Reference value :  2.95283e-06 Reference value :  2.96615e-06 Reference value :  2.97778e-06 Reference value :  2.98590e-06 Reference value :  2.99456e-06 Reference value :  3.00000e-06
No. of Data Rows : 260
Note: Simulation executed from .control section 


Note: No compatibility mode selected!


Circuit: ** sch_path: /home/bmott/ttsky25b_tiny_chaos/xsch/tb/adc/tt_um_3bit_flash_adc_tran_corners.sch

Doing analysis at TEMP = 27.000000 and TNOM = 27.000000

Using SPARSE 1.3 as Direct Linear Solver

Initial Transient Solution
--------------------------

Node                                   Voltage
----                                   -------
x1.x2.latch_left                      0.635924
x1.ref0                              0.0693352
x1.x2.tail                            0.675595
vdd                                    1.79983
x1.x2.latch_right                  4.15648e-05
vin                                        0.5
x1.bias_p                               1.1237
x1.d0                                  1.79983
x1.x2.out_left                         1.04172
x1.x3.latch_left                      0.625724
x1.ref1                               0.208572
x1.x3.tail                            0.742223
x1.x3.latch_right                  0.000431482
x1.d1                                  1.79983
x1.x3.out_left                         1.05131
x1.x4.latch_left                      0.615564
x1.ref2                               0.353412
x1.x4.tail                            0.847566
x1.x4.latch_right                    0.0119052
x1.d2                                  1.79983
x1.x4.out_left                         1.07123
x1.x5.latch_left                      0.566879
x1.ref3                               0.491505
x1.x5.tail                            0.921464
x1.x5.latch_right                     0.319465
x1.d3                                   1.7993
x1.x5.out_left                         1.14116
x1.x6.latch_left                     0.0112231
x1.ref4                               0.634207
x1.x6.tail                            0.967218
x1.x6.latch_right                     0.620065
x1.d4                              3.16234e-07
x1.x6.out_left                         1.78871
x1.x7.latch_left                   0.000290381
x1.ref5                               0.787473
x1.x7.tail                            0.972952
x1.x7.latch_right                     0.633567
x1.d5                              2.25876e-07
x1.x7.out_left                         1.78874
x1.x8.latch_left                   4.41844e-06
x1.ref6                               0.930546
x1.x8.tail                            0.972865
x1.x8.latch_right                     0.623461
x1.d6                              2.56287e-07
x1.x8.out_left                         1.78966
x1.x9.bias_1                          0.992482
x1.x9.xr_bias_1.x0.t1                 0.993335
x1.x9.xr_bias_1.x0.t2                  1.12292
x1.bias_n                             0.602323
x1.x9.bias_2                          0.862668
x1.x9.xr_bias_2.x0.t1                 0.863452
x1.x9.xr_bias_2.x0.t2                  0.99163
x1.x9.bias_3                          0.734709
x1.x9.xr_bias_3.x0.t1                 0.735532
x1.x9.xr_bias_3.x0.t2                 0.861835
x1.x9.xr_bias_4.x0.t1                 0.603213
x1.x9.xr_bias_4.x0.t2                 0.733786
x1.x1.y2                               1.79983
x1.x1.x3                               1.79983
x1.x1.x1.net1                      2.54162e-07
x1.x1.x6                           9.30957e-07
x1.x1.net2                          1.3901e-06
x1.x1.x2                               1.79983
x1.x1.x2.net1                      3.21912e-07
x1.x1.x5                           6.65038e-07
x1.x1.y1                           9.62475e-07
x1.x1.x1                               1.79983
x1.x1.x3.net1                      4.89384e-07
x1.x1.x4                           9.78526e-07
x1.x1.net1                         1.47187e-06
x1.x1.x0                               1.79983
x1.x1.x4.net1                          1.79983
x1.x1.y0                           1.47666e-06
x1.x1.x5.net1                      4.86602e-07
x1.x1.x6.net1                      4.29889e-07
x1.x1.x7.net1                      3.20317e-07
x1.x1.x8.net1                      5.45876e-07
x1.x1.x9.net1                          1.79983
x1.x1.x10.net1                         1.79983
x1.x1.x11.net1                         1.79983
x1.x1.x12.net1                         1.79983
d0                                 4.46072e-07
x1.x1.x13.net1                         1.79983
d1                                 4.89283e-07
x1.x1.x14.net1                     4.39938e-07
d2                                     1.79983
x1.xr12.x0.t1                         0.932732
x1.xr12.x0.t2                         0.997492
vref                                  0.999934
x1.xr1.x0.t1                          0.791724
x1.xr1.x0.t2                          0.926326
x1.xr2.x0.t1                          0.639405
x1.xr2.x0.t2                          0.783039
x1.xr3.x0.t1                          0.496035
x1.xr3.x0.t2                          0.629947
x1.xr4.x0.t1                          0.358237
x1.xr4.x0.t2                          0.487007
x1.xr5.x0.t1                          0.212984
x1.xr5.x0.t2                          0.348537
x1.xr6.x0.t1                         0.0735541
x1.xr6.x0.t2                          0.204112
x1.xr7.x0.t1                        0.00218317
x1.xr7.x0.t2                         0.0672284
x1.xr8.x0.t1                        0.00236684
x1.xr8.x0.t2                         0.0669798
x1.xr9.x0.t1                          0.932801
x1.xr9.x0.t2                          0.997758
net1                                       0.5
net2                                         1
vout                                       0.5
e1_int1                                    0.5
net3                                       1.8
be1#branch                                   0
e1#branch                                    0
v3#branch                          -0.00016813
v2#branch                         -6.63092e-05
v1#branch                                    0

 Reference value :  0.00000e+00 Reference value :  3.00000e-10 Reference value :  1.20000e-09 Reference value :  2.40000e-09 Reference value :  9.60000e-09 Reference value :  1.63933e-08 Reference value :  2.38398e-08 Reference value :  3.49310e-08 Reference value :  4.78782e-08 Reference value :  5.01451e-08 Reference value :  5.46787e-08 Reference value :  5.95668e-08 Reference value :  6.50442e-08 Reference value :  6.87137e-08 Reference value :  7.25155e-08 Reference value :  7.58172e-08 Reference value :  7.93317e-08 Reference value :  8.29141e-08 Reference value :  8.69175e-08 Reference value :  9.16868e-08 Reference value :  9.75170e-08 Reference value :  1.05162e-07 Reference value :  1.13767e-07 Reference value :  1.21555e-07 Reference value :  1.26778e-07 Reference value :  1.32392e-07 Reference value :  1.38023e-07 Reference value :  1.47267e-07 Reference value :  1.58651e-07 Reference value :  1.76445e-07 Reference value :  1.92447e-07 Reference value :  2.04301e-07 Reference value :  2.15299e-07 Reference value :  2.26536e-07 Reference value :  2.38075e-07 Reference value :  2.50207e-07 Reference value :  2.63425e-07 Reference value :  2.77921e-07 Reference value :  2.94239e-07 Reference value :  3.12782e-07 Reference value :  3.34123e-07 Reference value :  3.59031e-07 Reference value :  3.73508e-07 Reference value :  3.89783e-07 Reference value :  4.06010e-07 Reference value :  4.18030e-07 Reference value :  4.25919e-07 Reference value :  4.32296e-07 Reference value :  4.39149e-07 Reference value :  4.46306e-07 Reference value :  4.55420e-07 Reference value :  4.67047e-07 Reference value :  4.77677e-07 Reference value :  4.84599e-07 Reference value :  4.92330e-07 Reference value :  5.02362e-07 Reference value :  5.12211e-07 Reference value :  5.23224e-07 Reference value :  5.30480e-07 Reference value :  5.38014e-07 Reference value :  5.47267e-07 Reference value :  5.56745e-07 Reference value :  5.67949e-07 Reference value :  5.75608e-07 Reference value :  5.83951e-07 Reference value :  5.94760e-07 Reference value :  6.05957e-07 Reference value :  6.20402e-07 Reference value :  6.29570e-07 Reference value :  6.39326e-07 Reference value :  6.52517e-07 Reference value :  6.65470e-07 Reference value :  6.83418e-07 Reference value :  6.96492e-07 Reference value :  7.10382e-07 Reference value :  7.25597e-07 Reference value :  7.41656e-07 Reference value :  7.70227e-07 Reference value :  7.99968e-07 Reference value :  8.37930e-07 Reference value :  8.74291e-07 Reference value :  9.02864e-07 Reference value :  9.33178e-07 Reference value :  9.49751e-07 Reference value :  9.66143e-07 Reference value :  9.77179e-07 Reference value :  9.86277e-07 Reference value :  9.95761e-07 Reference value :  1.00497e-06 Reference value :  1.01293e-06 Reference value :  1.01887e-06 Reference value :  1.02450e-06 Reference value :  1.02905e-06 Reference value :  1.03379e-06 Reference value :  1.03890e-06 Reference value :  1.04485e-06 Reference value :  1.05274e-06 Reference value :  1.05935e-06 Reference value :  1.06730e-06 Reference value :  1.07201e-06 Reference value :  1.07737e-06 Reference value :  1.08394e-06 Reference value :  1.09165e-06 Reference value :  1.10180e-06 Reference value :  1.11023e-06 Reference value :  1.11970e-06 Reference value :  1.12580e-06 Reference value :  1.13221e-06 Reference value :  1.13768e-06 Reference value :  1.14350e-06 Reference value :  1.14942e-06 Reference value :  1.15575e-06 Reference value :  1.16296e-06 Reference value :  1.17118e-06 Reference value :  1.18114e-06 Reference value :  1.19065e-06 Reference value :  1.19740e-06 Reference value :  1.20434e-06 Reference value :  1.21356e-06 Reference value :  1.22286e-06 Reference value :  1.23581e-06 Reference value :  1.25000e-06 Reference value :  1.26803e-06 Reference value :  1.29023e-06 Reference value :  1.31781e-06 Reference value :  1.34424e-06 Reference value :  1.37443e-06 Reference value :  1.39358e-06 Reference value :  1.41125e-06 Reference value :  1.42952e-06 Reference value :  1.43948e-06 Reference value :  1.45127e-06 Reference value :  1.46385e-06 Reference value :  1.46549e-06 Reference value :  1.46879e-06 Reference value :  1.47271e-06 Reference value :  1.47569e-06 Reference value :  1.47882e-06 Reference value :  1.48182e-06 Reference value :  1.48503e-06 Reference value :  1.48920e-06 Reference value :  1.49394e-06 Reference value :  1.50052e-06 Reference value :  1.50907e-06 Reference value :  1.51872e-06 Reference value :  1.52524e-06 Reference value :  1.53141e-06 Reference value :  1.53831e-06 Reference value :  1.54497e-06 Reference value :  1.55375e-06 Reference value :  1.56341e-06 Reference value :  1.56983e-06 Reference value :  1.57646e-06 Reference value :  1.58438e-06 Reference value :  1.59184e-06 Reference value :  1.60193e-06 Reference value :  1.61304e-06 Reference value :  1.62081e-06 Reference value :  1.62839e-06 Reference value :  1.63578e-06 Reference value :  1.64388e-06 Reference value :  1.65645e-06 Reference value :  1.67045e-06 Reference value :  1.69097e-06 Reference value :  1.70585e-06 Reference value :  1.72154e-06 Reference value :  1.74365e-06 Reference value :  1.76744e-06 Reference value :  1.80474e-06 Reference value :  1.83404e-06 Reference value :  1.86662e-06 Reference value :  1.89445e-06 Reference value :  1.92267e-06 Reference value :  1.93858e-06 Reference value :  1.95761e-06 Reference value :  1.97058e-06 Reference value :  1.97888e-06 Reference value :  1.98826e-06 Reference value :  1.99484e-06 Reference value :  2.00187e-06 Reference value :  2.00869e-06 Reference value :  2.01586e-06 Reference value :  2.02006e-06 Reference value :  2.02499e-06 Reference value :  2.02880e-06 Reference value :  2.03293e-06 Reference value :  2.03709e-06 Reference value :  2.04158e-06 Reference value :  2.04697e-06 Reference value :  2.05333e-06 Reference value :  2.06009e-06 Reference value :  2.06557e-06 Reference value :  2.06971e-06 Reference value :  2.07418e-06 Reference value :  2.07903e-06 Reference value :  2.08532e-06 Reference value :  2.09523e-06 Reference value :  2.10654e-06 Reference value :  2.11856e-06 Reference value :  2.12697e-06 Reference value :  2.13488e-06 Reference value :  2.14092e-06 Reference value :  2.14751e-06 Reference value :  2.15404e-06 Reference value :  2.16142e-06 Reference value :  2.17041e-06 Reference value :  2.18001e-06 Reference value :  2.19097e-06 Reference value :  2.19784e-06 Reference value :  2.20513e-06 Reference value :  2.21306e-06 Reference value :  2.22118e-06 Reference value :  2.23015e-06 Reference value :  2.23993e-06 Reference value :  2.25096e-06 Reference value :  2.26371e-06 Reference value :  2.27860e-06 Reference value :  2.29642e-06 Reference value :  2.31786e-06 Reference value :  2.34395e-06 Reference value :  2.37170e-06 Reference value :  2.38678e-06 Reference value :  2.40451e-06 Reference value :  2.42744e-06 Reference value :  2.43960e-06 Reference value :  2.45401e-06 Reference value :  2.46743e-06 Reference value :  2.48036e-06 Reference value :  2.48860e-06 Reference value :  2.49795e-06 Reference value :  2.50837e-06 Reference value :  2.52132e-06 Reference value :  2.52953e-06 Reference value :  2.53860e-06 Reference value :  2.54834e-06 Reference value :  2.55858e-06 Reference value :  2.56637e-06 Reference value :  2.57462e-06 Reference value :  2.58237e-06 Reference value :  2.59021e-06 Reference value :  2.60192e-06 Reference value :  2.61203e-06 Reference value :  2.61968e-06 Reference value :  2.62812e-06 Reference value :  2.63627e-06 Reference value :  2.64440e-06 Reference value :  2.66065e-06 Reference value :  2.67643e-06 Reference value :  2.68882e-06 Reference value :  2.70194e-06 Reference value :  2.71562e-06 Reference value :  2.73275e-06 Reference value :  2.76455e-06 Reference value :  2.80225e-06 Reference value :  2.83561e-06 Reference value :  2.87339e-06 Reference value :  2.89919e-06 Reference value :  2.92668e-06 Reference value :  2.93963e-06 Reference value :  2.95555e-06 Reference value :  2.96772e-06 Reference value :  2.97556e-06 Reference value :  2.98283e-06 Reference value :  2.99046e-06 Reference value :  2.99769e-06 Reference value :  3.00000e-06
No. of Data Rows : 268
Note: Simulation executed from .control section 


Note: No compatibility mode selected!


Circuit: ** sch_path: /home/bmott/ttsky25b_tiny_chaos/xsch/tb/adc/tt_um_3bit_flash_adc_tran_corners.sch

Doing analysis at TEMP = 27.000000 and TNOM = 27.000000

Using SPARSE 1.3 as Direct Linear Solver

Initial Transient Solution
--------------------------

Node                                   Voltage
----                                   -------
x1.x2.latch_left                      0.627864
x1.ref0                              0.0724412
x1.x2.tail                            0.672289
vdd                                    1.79984
x1.x2.latch_right                  3.99086e-05
vin                                        0.5
x1.bias_p                              1.12471
x1.d0                                  1.79984
x1.x2.out_left                         1.05095
x1.x3.latch_left                      0.630454
x1.ref1                               0.216581
x1.x3.tail                            0.752132
x1.x3.latch_right                  0.000483782
x1.d1                                  1.79984
x1.x3.out_left                          1.0534
x1.x4.latch_left                      0.608769
x1.ref2                               0.354413
x1.x4.tail                            0.846644
x1.x4.latch_right                    0.0123596
x1.d2                                  1.79984
x1.x4.out_left                         1.08397
x1.x5.latch_left                      0.455828
x1.ref3                                 0.5001
x1.x5.tail                            0.925814
x1.x5.latch_right                     0.556412
x1.d3                                0.0140702
x1.x5.out_left                         1.31611
x1.x6.latch_left                    0.00929238
x1.ref4                               0.643731
x1.x6.tail                            0.964439
x1.x6.latch_right                     0.613929
x1.d4                              2.72263e-07
x1.x6.out_left                         1.78835
x1.x7.latch_left                    0.00028264
x1.ref5                               0.785149
x1.x7.tail                            0.970406
x1.x7.latch_right                     0.625346
x1.d5                              2.03773e-07
x1.x7.out_left                         1.79043
x1.x8.latch_left                   3.70941e-06
x1.ref6                               0.929612
x1.x8.tail                            0.971039
x1.x8.latch_right                     0.626829
x1.d6                               2.4012e-07
x1.x8.out_left                         1.79032
x1.x9.bias_1                          0.990649
x1.x9.xr_bias_1.x0.t1                 0.991447
x1.x9.xr_bias_1.x0.t2                  1.12385
x1.bias_n                             0.606752
x1.x9.bias_2                          0.861167
x1.x9.xr_bias_2.x0.t1                 0.862116
x1.x9.xr_bias_2.x0.t2                 0.989857
x1.x9.bias_3                          0.733848
x1.x9.xr_bias_3.x0.t1                 0.734647
x1.x9.xr_bias_3.x0.t2                 0.860359
x1.x9.xr_bias_4.x0.t1                 0.607634
x1.x9.xr_bias_4.x0.t2                 0.733037
x1.x1.y2                           2.70243e-07
x1.x1.x3                           2.70243e-07
x1.x1.x1.net1                          1.79984
x1.x1.x6                           9.88461e-07
x1.x1.net2                             1.79984
x1.x1.x2                               1.79984
x1.x1.x2.net1                          1.79984
x1.x1.x5                           9.34725e-07
x1.x1.y1                               1.79984
x1.x1.x1                               1.79984
x1.x1.x3.net1                          1.79984
x1.x1.x4                           7.60955e-07
x1.x1.net1                             1.79984
x1.x1.x0                               1.79984
x1.x1.x4.net1                       5.0268e-07
x1.x1.y0                               1.79984
x1.x1.x5.net1                      3.56394e-07
x1.x1.x6.net1                      3.82617e-07
x1.x1.x7.net1                      3.38876e-07
x1.x1.x8.net1                          1.79984
x1.x1.x9.net1                          1.79984
x1.x1.x10.net1                         1.79984
x1.x1.x11.net1                         1.79984
x1.x1.x12.net1                     4.35283e-07
d0                                     1.79984
x1.x1.x13.net1                     3.65882e-07
d1                                     1.79984
x1.x1.x14.net1                         1.79984
d2                                 3.20933e-07
x1.xr12.x0.t1                         0.932213
x1.xr12.x0.t2                         0.997771
vref                                  0.999934
x1.xr1.x0.t1                          0.790145
x1.xr1.x0.t2                           0.92495
x1.xr2.x0.t1                           0.64809
x1.xr2.x0.t2                          0.780629
x1.xr3.x0.t1                          0.505072
x1.xr3.x0.t2                          0.639204
x1.xr4.x0.t1                          0.359072
x1.xr4.x0.t2                          0.495776
x1.xr5.x0.t1                          0.220965
x1.xr5.x0.t2                          0.349756
x1.xr6.x0.t1                         0.0770438
x1.xr6.x0.t2                          0.211865
x1.xr7.x0.t1                        0.00219308
x1.xr7.x0.t2                         0.0702195
x1.xr8.x0.t1                        0.00206676
x1.xr8.x0.t2                         0.0700943
x1.xr9.x0.t1                          0.932003
x1.xr9.x0.t2                          0.997567
net1                                       0.5
net2                                         1
vout                                     0.375
e1_int1                                  0.375
net3                                       1.8
be1#branch                                   0
e1#branch                                    0
v3#branch                         -0.000157292
v2#branch                         -6.64597e-05
v1#branch                                    0

 Reference value :  0.00000e+00 Reference value :  3.00000e-10 Reference value :  1.20000e-09 Reference value :  2.40000e-09 Reference value :  4.80000e-09 Reference value :  9.60000e-09 Reference value :  1.40486e-08 Reference value :  1.75091e-08 Reference value :  2.11982e-08 Reference value :  2.46280e-08 Reference value :  2.82547e-08 Reference value :  3.28131e-08 Reference value :  3.84597e-08 Reference value :  4.64445e-08 Reference value :  5.75201e-08 Reference value :  6.84558e-08 Reference value :  7.63081e-08 Reference value :  8.36350e-08 Reference value :  8.95319e-08 Reference value :  9.58862e-08 Reference value :  1.02074e-07 Reference value :  1.08932e-07 Reference value :  1.16859e-07 Reference value :  1.22222e-07 Reference value :  1.27244e-07 Reference value :  1.31155e-07 Reference value :  1.35433e-07 Reference value :  1.39595e-07 Reference value :  1.44313e-07 Reference value :  1.49975e-07 Reference value :  1.56878e-07 Reference value :  1.67165e-07 Reference value :  1.81944e-07 Reference value :  1.96586e-07 Reference value :  2.06945e-07 Reference value :  2.16569e-07 Reference value :  2.26740e-07 Reference value :  2.37159e-07 Reference value :  2.48218e-07 Reference value :  2.60294e-07 Reference value :  2.73518e-07 Reference value :  2.88444e-07 Reference value :  3.05388e-07 Reference value :  3.24915e-07 Reference value :  3.47582e-07 Reference value :  3.67639e-07 Reference value :  3.79619e-07 Reference value :  3.93071e-07 Reference value :  4.09260e-07 Reference value :  4.26197e-07 Reference value :  4.36864e-07 Reference value :  4.49624e-07 Reference value :  4.63642e-07 Reference value :  4.76392e-07 Reference value :  4.84597e-07 Reference value :  4.94003e-07 Reference value :  5.04570e-07 Reference value :  5.18485e-07 Reference value :  5.26109e-07 Reference value :  5.34857e-07 Reference value :  5.44212e-07 Reference value :  5.53955e-07 Reference value :  5.65817e-07 Reference value :  5.73733e-07 Reference value :  5.81813e-07 Reference value :  5.93127e-07 Reference value :  6.03491e-07 Reference value :  6.15515e-07 Reference value :  6.23608e-07 Reference value :  6.31364e-07 Reference value :  6.39959e-07 Reference value :  6.48898e-07 Reference value :  6.60160e-07 Reference value :  6.73300e-07 Reference value :  6.83238e-07 Reference value :  6.93692e-07 Reference value :  7.05160e-07 Reference value :  7.17052e-07 Reference value :  7.38970e-07 Reference value :  7.61648e-07 Reference value :  7.96998e-07 Reference value :  8.42925e-07 Reference value :  8.92875e-07 Reference value :  9.21786e-07 Reference value :  9.43265e-07 Reference value :  9.65110e-07 Reference value :  9.65886e-07 Reference value :  9.67439e-07 Reference value :  9.68634e-07 Reference value :  9.69743e-07 Reference value :  9.71278e-07 Reference value :  9.72854e-07 Reference value :  9.75018e-07 Reference value :  9.77804e-07 Reference value :  9.81521e-07 Reference value :  9.86850e-07 Reference value :  9.94227e-07 Reference value :  1.00498e-06 Reference value :  1.01578e-06 Reference value :  1.02363e-06 Reference value :  1.03121e-06 Reference value :  1.03702e-06 Reference value :  1.04315e-06 Reference value :  1.04954e-06 Reference value :  1.05684e-06 Reference value :  1.06492e-06 Reference value :  1.07068e-06 Reference value :  1.07618e-06 Reference value :  1.08040e-06 Reference value :  1.08488e-06 Reference value :  1.08954e-06 Reference value :  1.09490e-06 Reference value :  1.10183e-06 Reference value :  1.10960e-06 Reference value :  1.11833e-06 Reference value :  1.12414e-06 Reference value :  1.12950e-06 Reference value :  1.13441e-06 Reference value :  1.13959e-06 Reference value :  1.14476e-06 Reference value :  1.15047e-06 Reference value :  1.15690e-06 Reference value :  1.16441e-06 Reference value :  1.17363e-06 Reference value :  1.18384e-06 Reference value :  1.19528e-06 Reference value :  1.20283e-06 Reference value :  1.20988e-06 Reference value :  1.21730e-06 Reference value :  1.22498e-06 Reference value :  1.23304e-06 Reference value :  1.24194e-06 Reference value :  1.25179e-06 Reference value :  1.26315e-06 Reference value :  1.27644e-06 Reference value :  1.29230e-06 Reference value :  1.31154e-06 Reference value :  1.33675e-06 Reference value :  1.36931e-06 Reference value :  1.38619e-06 Reference value :  1.40598e-06 Reference value :  1.42940e-06 Reference value :  1.44196e-06 Reference value :  1.45703e-06 Reference value :  1.45889e-06 Reference value :  1.46262e-06 Reference value :  1.46701e-06 Reference value :  1.47035e-06 Reference value :  1.47386e-06 Reference value :  1.47747e-06 Reference value :  1.48096e-06 Reference value :  1.48796e-06 Reference value :  1.49540e-06 Reference value :  1.50894e-06 Reference value :  1.52211e-06 Reference value :  1.53143e-06 Reference value :  1.54019e-06 Reference value :  1.55062e-06 Reference value :  1.56138e-06 Reference value :  1.56895e-06 Reference value :  1.57597e-06 Reference value :  1.58433e-06 Reference value :  1.59246e-06 Reference value :  1.60292e-06 Reference value :  1.61478e-06 Reference value :  1.62276e-06 Reference value :  1.63041e-06 Reference value :  1.63858e-06 Reference value :  1.64720e-06 Reference value :  1.65810e-06 Reference value :  1.67078e-06 Reference value :  1.68041e-06 Reference value :  1.69066e-06 Reference value :  1.70177e-06 Reference value :  1.71405e-06 Reference value :  1.73557e-06 Reference value :  1.75873e-06 Reference value :  1.79453e-06 Reference value :  1.84467e-06 Reference value :  1.88540e-06 Reference value :  1.91196e-06 Reference value :  1.93160e-06 Reference value :  1.94824e-06 Reference value :  1.96474e-06 Reference value :  1.97941e-06 Reference value :  1.98797e-06 Reference value :  1.99792e-06 Reference value :  2.00958e-06 Reference value :  2.01823e-06 Reference value :  2.02436e-06 Reference value :  2.03126e-06 Reference value :  2.03682e-06 Reference value :  2.04270e-06 Reference value :  2.04875e-06 Reference value :  2.05521e-06 Reference value :  2.06158e-06 Reference value :  2.06876e-06 Reference value :  2.07323e-06 Reference value :  2.07833e-06 Reference value :  2.08355e-06 Reference value :  2.08893e-06 Reference value :  2.09497e-06 Reference value :  2.10167e-06 Reference value :  2.10968e-06 Reference value :  2.11824e-06 Reference value :  2.12402e-06 Reference value :  2.12934e-06 Reference value :  2.13423e-06 Reference value :  2.13939e-06 Reference value :  2.14451e-06 Reference value :  2.15018e-06 Reference value :  2.15652e-06 Reference value :  2.16395e-06 Reference value :  2.17311e-06 Reference value :  2.18383e-06 Reference value :  2.19548e-06 Reference value :  2.20325e-06 Reference value :  2.21051e-06 Reference value :  2.21831e-06 Reference value :  2.22634e-06 Reference value :  2.23483e-06 Reference value :  2.24421e-06 Reference value :  2.25457e-06 Reference value :  2.26648e-06 Reference value :  2.28034e-06 Reference value :  2.29679e-06 Reference value :  2.31658e-06 Reference value :  2.34117e-06 Reference value :  2.36823e-06 Reference value :  2.38272e-06 Reference value :  2.39992e-06 Reference value :  2.42227e-06 Reference value :  2.44046e-06 Reference value :  2.45816e-06 Reference value :  2.47851e-06 Reference value :  2.49090e-06 Reference value :  2.50312e-06 Reference value :  2.50568e-06 Reference value :  2.51079e-06 Reference value :  2.51599e-06 Reference value :  2.51969e-06 Reference value :  2.52370e-06 Reference value :  2.52727e-06 Reference value :  2.53111e-06 Reference value :  2.53639e-06 Reference value :  2.54217e-06 Reference value :  2.55044e-06 Reference value :  2.55933e-06 Reference value :  2.56549e-06 Reference value :  2.57142e-06 Reference value :  2.57733e-06 Reference value :  2.58348e-06 Reference value :  2.59160e-06 Reference value :  2.60074e-06 Reference value :  2.61109e-06 Reference value :  2.61903e-06 Reference value :  2.62734e-06 Reference value :  2.63496e-06 Reference value :  2.64348e-06 Reference value :  2.65862e-06 Reference value :  2.67592e-06 Reference value :  2.68832e-06 Reference value :  2.70155e-06 Reference value :  2.71657e-06 Reference value :  2.73207e-06 Reference value :  2.75587e-06 Reference value :  2.78116e-06 Reference value :  2.81751e-06 Reference value :  2.84995e-06 Reference value :  2.87373e-06 Reference value :  2.89747e-06 Reference value :  2.91432e-06 Reference value :  2.92513e-06 Reference value :  2.93515e-06 Reference value :  2.94399e-06 Reference value :  2.95306e-06 Reference value :  2.96267e-06 Reference value :  2.97041e-06 Reference value :  2.97597e-06 Reference value :  2.98221e-06 Reference value :  2.98717e-06 Reference value :  2.99228e-06 Reference value :  2.99767e-06 Reference value :  3.00000e-06
No. of Data Rows : 285
Note: Simulation executed from .control section 


Note: No compatibility mode selected!


Circuit: ** sch_path: /home/bmott/ttsky25b_tiny_chaos/xsch/tb/adc/tt_um_3bit_flash_adc_tran_corners.sch

Doing analysis at TEMP = 27.000000 and TNOM = 27.000000

Using SPARSE 1.3 as Direct Linear Solver

Initial Transient Solution
--------------------------

Node                                   Voltage
----                                   -------
x1.x2.latch_left                      0.630804
x1.ref0                              0.0743819
x1.x2.tail                            0.670832
vdd                                    1.79984
x1.x2.latch_right                  3.48377e-05
vin                                        0.5
x1.bias_p                              1.12332
x1.d0                                  1.79984
x1.x2.out_left                          1.0451
x1.x3.latch_left                      0.623636
x1.ref1                               0.217638
x1.x3.tail                             0.75174
x1.x3.latch_right                  0.000571979
x1.d1                                  1.79984
x1.x3.out_left                         1.06222
x1.x4.latch_left                      0.615183
x1.ref2                               0.354927
x1.x4.tail                            0.847826
x1.x4.latch_right                    0.0115495
x1.d2                                  1.79984
x1.x4.out_left                         1.07932
x1.x5.latch_left                      0.395768
x1.ref3                               0.494849
x1.x5.tail                            0.924885
x1.x5.latch_right                      0.56555
x1.d3                               0.00413064
x1.x5.out_left                         1.39585
x1.x6.latch_left                    0.00877953
x1.ref4                               0.644952
x1.x6.tail                            0.962347
x1.x6.latch_right                     0.617601
x1.d4                              2.97118e-07
x1.x6.out_left                         1.78945
x1.x7.latch_left                   0.000210542
x1.ref5                               0.794197
x1.x7.tail                            0.972554
x1.x7.latch_right                     0.634462
x1.d5                              2.41903e-07
x1.x7.out_left                         1.78963
x1.x8.latch_left                   4.85464e-06
x1.ref6                               0.927827
x1.x8.tail                            0.974223
x1.x8.latch_right                     0.628629
x1.d6                              2.27958e-07
x1.x8.out_left                         1.79164
x1.x9.bias_1                          0.995544
x1.x9.xr_bias_1.x0.t1                 0.996451
x1.x9.xr_bias_1.x0.t2                  1.12249
x1.bias_n                             0.599181
x1.x9.bias_2                          0.865495
x1.x9.xr_bias_2.x0.t1                 0.866409
x1.x9.xr_bias_2.x0.t2                 0.994648
x1.x9.bias_3                          0.732245
x1.x9.xr_bias_3.x0.t1                 0.733106
x1.x9.xr_bias_3.x0.t2                 0.864606
x1.x9.xr_bias_4.x0.t1                 0.600054
x1.x9.xr_bias_4.x0.t2                 0.731437
x1.x1.y2                           5.88813e-07
x1.x1.x3                           5.88813e-07
x1.x1.x1.net1                          1.79984
x1.x1.x6                           7.99323e-07
x1.x1.net2                             1.79984
x1.x1.x2                               1.79984
x1.x1.x2.net1                          1.79984
x1.x1.x5                           7.11969e-07
x1.x1.y1                               1.79984
x1.x1.x1                               1.79984
x1.x1.x3.net1                          1.79984
x1.x1.x4                           5.89978e-07
x1.x1.net1                             1.79984
x1.x1.x0                               1.79984
x1.x1.x4.net1                      3.76754e-07
x1.x1.y0                               1.79984
x1.x1.x5.net1                      4.64195e-07
x1.x1.x6.net1                      4.76237e-07
x1.x1.x7.net1                      4.77543e-07
x1.x1.x8.net1                          1.79984
x1.x1.x9.net1                          1.79984
x1.x1.x10.net1                         1.79984
x1.x1.x11.net1                         1.79984
x1.x1.x12.net1                     5.35696e-07
d0                                     1.79984
x1.x1.x13.net1                      4.1359e-07
d1                                     1.79984
x1.x1.x14.net1                         1.79984
d2                                 4.52786e-07
x1.xr12.x0.t1                          0.93009
x1.xr12.x0.t2                          0.99759
vref                                  0.999932
x1.xr1.x0.t1                          0.798621
x1.xr1.x0.t2                           0.92371
x1.xr2.x0.t1                          0.649417
x1.xr2.x0.t2                           0.78981
x1.xr3.x0.t1                          0.499422
x1.xr3.x0.t2                          0.640772
x1.xr4.x0.t1                          0.359412
x1.xr4.x0.t2                          0.490535
x1.xr5.x0.t1                          0.222426
x1.xr5.x0.t2                          0.350003
x1.xr6.x0.t1                         0.0790556
x1.xr6.x0.t2                          0.212944
x1.xr7.x0.t1                        0.00247654
x1.xr7.x0.t2                         0.0720849
x1.xr8.x0.t1                        0.00258277
x1.xr8.x0.t2                          0.072174
x1.xr9.x0.t1                          0.930296
x1.xr9.x0.t2                          0.997596
net1                                       0.5
net2                                         1
vout                                     0.375
e1_int1                                  0.375
net3                                       1.8
be1#branch                                   0
e1#branch                                    0
v3#branch                         -0.000157589
v2#branch                         -6.83317e-05
v1#branch                                    0

 Reference value :  0.00000e+00 Reference value :  3.00000e-10 Reference value :  1.20000e-09 Reference value :  4.80000e-09 Reference value :  9.60000e-09 Reference value :  1.47412e-08 Reference value :  1.85478e-08 Reference value :  2.23036e-08 Reference value :  2.53583e-08 Reference value :  2.86034e-08 Reference value :  3.25730e-08 Reference value :  3.72229e-08 Reference value :  4.36346e-08 Reference value :  5.30000e-08 Reference value :  5.43788e-08 Reference value :  5.71363e-08 Reference value :  6.26513e-08 Reference value :  6.78737e-08 Reference value :  7.15838e-08 Reference value :  7.51192e-08 Reference value :  7.78311e-08 Reference value :  8.08216e-08 Reference value :  8.36682e-08 Reference value :  8.69601e-08 Reference value :  9.09858e-08 Reference value :  9.60160e-08 Reference value :  1.03586e-07 Reference value :  1.13003e-07 Reference value :  1.23615e-07 Reference value :  1.30882e-07 Reference value :  1.37703e-07 Reference value :  1.42893e-07 Reference value :  1.48531e-07 Reference value :  1.54108e-07 Reference value :  1.60417e-07 Reference value :  1.68104e-07 Reference value :  1.77803e-07 Reference value :  1.87894e-07 Reference value :  1.94855e-07 Reference value :  2.01312e-07 Reference value :  2.07544e-07 Reference value :  2.14040e-07 Reference value :  2.20522e-07 Reference value :  2.27619e-07 Reference value :  2.35405e-07 Reference value :  2.44325e-07 Reference value :  2.54895e-07 Reference value :  2.67616e-07 Reference value :  2.84726e-07 Reference value :  3.09794e-07 Reference value :  3.45826e-07 Reference value :  3.82427e-07 Reference value :  4.05827e-07 Reference value :  4.27483e-07 Reference value :  4.39060e-07 Reference value :  4.53541e-07 Reference value :  4.71708e-07 Reference value :  4.83158e-07 Reference value :  4.95669e-07 Reference value :  5.08842e-07 Reference value :  5.22567e-07 Reference value :  5.31772e-07 Reference value :  5.40836e-07 Reference value :  5.53897e-07 Reference value :  5.65705e-07 Reference value :  5.74367e-07 Reference value :  5.82553e-07 Reference value :  5.92494e-07 Reference value :  6.02788e-07 Reference value :  6.16814e-07 Reference value :  6.25963e-07 Reference value :  6.35355e-07 Reference value :  6.48588e-07 Reference value :  6.61535e-07 Reference value :  6.80691e-07 Reference value :  6.94602e-07 Reference value :  7.09313e-07 Reference value :  7.26192e-07 Reference value :  7.44214e-07 Reference value :  7.76721e-07 Reference value :  8.11566e-07 Reference value :  8.43969e-07 Reference value :  8.66555e-07 Reference value :  8.90957e-07 Reference value :  9.16151e-07 Reference value :  9.37420e-07 Reference value :  9.53787e-07 Reference value :  9.68182e-07 Reference value :  9.78823e-07 Reference value :  9.88938e-07 Reference value :  9.96326e-07 Reference value :  1.00403e-06 Reference value :  1.01153e-06 Reference value :  1.01973e-06 Reference value :  1.02499e-06 Reference value :  1.03010e-06 Reference value :  1.03408e-06 Reference value :  1.03844e-06 Reference value :  1.04263e-06 Reference value :  1.04729e-06 Reference value :  1.05275e-06 Reference value :  1.05924e-06 Reference value :  1.06435e-06 Reference value :  1.06853e-06 Reference value :  1.07210e-06 Reference value :  1.07578e-06 Reference value :  1.07938e-06 Reference value :  1.08586e-06 Reference value :  1.09576e-06 Reference value :  1.11214e-06 Reference value :  1.12819e-06 Reference value :  1.13894e-06 Reference value :  1.15013e-06 Reference value :  1.16365e-06 Reference value :  1.17637e-06 Reference value :  1.18996e-06 Reference value :  1.19775e-06 Reference value :  1.20721e-06 Reference value :  1.21727e-06 Reference value :  1.22657e-06 Reference value :  1.23820e-06 Reference value :  1.25208e-06 Reference value :  1.27024e-06 Reference value :  1.29708e-06 Reference value :  1.33984e-06 Reference value :  1.39359e-06 Reference value :  1.42978e-06 Reference value :  1.45172e-06 Reference value :  1.45482e-06 Reference value :  1.46100e-06 Reference value :  1.46717e-06 Reference value :  1.47144e-06 Reference value :  1.47599e-06 Reference value :  1.48031e-06 Reference value :  1.48477e-06 Reference value :  1.49067e-06 Reference value :  1.49704e-06 Reference value :  1.50564e-06 Reference value :  1.51481e-06 Reference value :  1.52117e-06 Reference value :  1.52717e-06 Reference value :  1.53387e-06 Reference value :  1.54021e-06 Reference value :  1.54881e-06 Reference value :  1.55810e-06 Reference value :  1.56541e-06 Reference value :  1.57205e-06 Reference value :  1.57883e-06 Reference value :  1.58607e-06 Reference value :  1.59564e-06 Reference value :  1.60563e-06 Reference value :  1.61521e-06 Reference value :  1.62403e-06 Reference value :  1.63243e-06 Reference value :  1.64224e-06 Reference value :  1.65660e-06 Reference value :  1.67641e-06 Reference value :  1.69632e-06 Reference value :  1.71241e-06 Reference value :  1.72950e-06 Reference value :  1.75158e-06 Reference value :  1.78886e-06 Reference value :  1.83023e-06 Reference value :  1.88412e-06 Reference value :  1.91488e-06 Reference value :  1.94111e-06 Reference value :  1.96019e-06 Reference value :  1.97493e-06 Reference value :  1.98399e-06 Reference value :  1.99338e-06 Reference value :  2.00162e-06 Reference value :  2.01028e-06 Reference value :  2.01754e-06 Reference value :  2.02298e-06 Reference value :  2.02882e-06 Reference value :  2.03320e-06 Reference value :  2.03779e-06 Reference value :  2.04259e-06 Reference value :  2.04803e-06 Reference value :  2.05548e-06 Reference value :  2.06328e-06 Reference value :  2.07246e-06 Reference value :  2.07984e-06 Reference value :  2.08722e-06 Reference value :  2.09560e-06 Reference value :  2.10722e-06 Reference value :  2.11963e-06 Reference value :  2.12832e-06 Reference value :  2.13680e-06 Reference value :  2.14332e-06 Reference value :  2.15013e-06 Reference value :  2.15738e-06 Reference value :  2.16563e-06 Reference value :  2.17644e-06 Reference value :  2.18853e-06 Reference value :  2.19665e-06 Reference value :  2.20422e-06 Reference value :  2.21159e-06 Reference value :  2.21927e-06 Reference value :  2.22715e-06 Reference value :  2.23581e-06 Reference value :  2.24543e-06 Reference value :  2.25647e-06 Reference value :  2.26953e-06 Reference value :  2.28518e-06 Reference value :  2.30595e-06 Reference value :  2.33561e-06 Reference value :  2.37315e-06 Reference value :  2.39234e-06 Reference value :  2.41505e-06 Reference value :  2.42940e-06 Reference value :  2.44341e-06 Reference value :  2.45930e-06 Reference value :  2.46121e-06 Reference value :  2.46503e-06 Reference value :  2.46830e-06 Reference value :  2.47094e-06 Reference value :  2.47377e-06 Reference value :  2.47734e-06 Reference value :  2.48104e-06 Reference value :  2.48668e-06 Reference value :  2.49389e-06 Reference value :  2.50490e-06 Reference value :  2.50677e-06 Reference value :  2.51052e-06 Reference value :  2.51468e-06 Reference value :  2.51790e-06 Reference value :  2.52126e-06 Reference value :  2.52439e-06 Reference value :  2.52772e-06 Reference value :  2.53280e-06 Reference value :  2.53845e-06 Reference value :  2.54714e-06 Reference value :  2.55674e-06 Reference value :  2.56746e-06 Reference value :  2.57477e-06 Reference value :  2.58281e-06 Reference value :  2.59310e-06 Reference value :  2.60389e-06 Reference value :  2.61702e-06 Reference value :  2.62582e-06 Reference value :  2.63542e-06 Reference value :  2.64838e-06 Reference value :  2.66155e-06 Reference value :  2.68079e-06 Reference value :  2.69480e-06 Reference value :  2.70964e-06 Reference value :  2.72671e-06 Reference value :  2.74477e-06 Reference value :  2.78089e-06 Reference value :  2.82380e-06 Reference value :  2.88380e-06 Reference value :  2.91651e-06 Reference value :  2.94996e-06 Reference value :  2.97487e-06 Reference value :  2.99138e-06 Reference value :  3.00000e-06
No. of Data Rows : 259
Note: Simulation executed from .control section 


Note: No compatibility mode selected!


Circuit: ** sch_path: /home/bmott/ttsky25b_tiny_chaos/xsch/tb/adc/tt_um_3bit_flash_adc_tran_corners.sch

Doing analysis at TEMP = 27.000000 and TNOM = 27.000000

Using SPARSE 1.3 as Direct Linear Solver

Initial Transient Solution
--------------------------

Node                                   Voltage
----                                   -------
x1.x2.latch_left                      0.625749
x1.ref0                               0.073714
x1.x2.tail                            0.667013
vdd                                    1.79984
x1.x2.latch_right                  2.98247e-05
vin                                        0.5
x1.bias_p                              1.12339
x1.d0                                  1.79984
x1.x2.out_left                         1.05895
x1.x3.latch_left                      0.629933
x1.ref1                               0.212652
x1.x3.tail                            0.748963
x1.x3.latch_right                  0.000489876
x1.d1                                  1.79984
x1.x3.out_left                         1.04291
x1.x4.latch_left                      0.609536
x1.ref2                               0.355275
x1.x4.tail                              0.8502
x1.x4.latch_right                      0.01169
x1.d2                                  1.79984
x1.x4.out_left                         1.08702
x1.x5.latch_left                      0.353679
x1.ref3                               0.496343
x1.x5.tail                            0.923766
x1.x5.latch_right                     0.569212
x1.d3                               0.00129023
x1.x5.out_left                         1.45184
x1.x6.latch_left                     0.0114568
x1.ref4                                0.63992
x1.x6.tail                            0.962633
x1.x6.latch_right                     0.614365
x1.d4                              2.79336e-07
x1.x6.out_left                         1.78694
x1.x7.latch_left                   0.000347163
x1.ref5                               0.786285
x1.x7.tail                            0.977034
x1.x7.latch_right                     0.631367
x1.d5                              2.28146e-07
x1.x7.out_left                         1.79235
x1.x8.latch_left                   3.58129e-06
x1.ref6                                0.93016
x1.x8.tail                            0.970654
x1.x8.latch_right                     0.629644
x1.d6                              2.55957e-07
x1.x8.out_left                         1.79063
x1.x9.bias_1                          0.992432
x1.x9.xr_bias_1.x0.t1                 0.993295
x1.x9.xr_bias_1.x0.t2                  1.12256
x1.bias_n                             0.604589
x1.x9.bias_2                          0.862192
x1.x9.xr_bias_2.x0.t1                  0.86308
x1.x9.xr_bias_2.x0.t2                 0.991509
x1.x9.bias_3                          0.735211
x1.x9.xr_bias_3.x0.t1                 0.736081
x1.x9.xr_bias_3.x0.t2                 0.861385
x1.x9.xr_bias_4.x0.t1                  0.60544
x1.x9.xr_bias_4.x0.t2                 0.734432
x1.x1.y2                           4.42132e-07
x1.x1.x3                           4.42132e-07
x1.x1.x1.net1                          1.79984
x1.x1.x6                           9.16365e-07
x1.x1.net2                             1.79984
x1.x1.x2                               1.79984
x1.x1.x2.net1                          1.79984
x1.x1.x5                           6.24674e-07
x1.x1.y1                               1.79984
x1.x1.x1                               1.79984
x1.x1.x3.net1                          1.79984
x1.x1.x4                           8.17297e-07
x1.x1.net1                             1.79984
x1.x1.x0                               1.79984
x1.x1.x4.net1                      4.28527e-07
x1.x1.y0                               1.79984
x1.x1.x5.net1                      4.37562e-07
x1.x1.x6.net1                      4.64753e-07
x1.x1.x7.net1                      3.75774e-07
x1.x1.x8.net1                          1.79984
x1.x1.x9.net1                          1.79984
x1.x1.x10.net1                         1.79984
x1.x1.x11.net1                         1.79984
x1.x1.x12.net1                     3.97558e-07
d0                                     1.79984
x1.x1.x13.net1                      3.2974e-07
d1                                     1.79984
x1.x1.x14.net1                         1.79984
d2                                 4.50773e-07
x1.xr12.x0.t1                         0.932586
x1.xr12.x0.t2                         0.997379
vref                                  0.999934
x1.xr1.x0.t1                          0.790477
x1.xr1.x0.t2                          0.925471
x1.xr2.x0.t1                          0.645089
x1.xr2.x0.t2                          0.781587
x1.xr3.x0.t1                          0.501218
x1.xr3.x0.t2                          0.635333
x1.xr4.x0.t1                          0.359769
x1.xr4.x0.t2                          0.491938
x1.xr5.x0.t1                           0.21681
x1.xr5.x0.t2                          0.350261
x1.xr6.x0.t1                          0.077897
x1.xr6.x0.t2                          0.208124
x1.xr7.x0.t1                        0.00209146
x1.xr7.x0.t2                         0.0713954
x1.xr8.x0.t1                        0.00221228
x1.xr8.x0.t2                         0.0713612
x1.xr9.x0.t1                          0.932437
x1.xr9.x0.t2                          0.997614
net1                                       0.5
net2                                         1
vout                                     0.375
e1_int1                                  0.375
net3                                       1.8
be1#branch                                   0
e1#branch                                    0
v3#branch                         -0.000156973
v2#branch                         -6.63852e-05
v1#branch                                    0

 Reference value :  0.00000e+00 Reference value :  3.00000e-10 Reference value :  1.20000e-09 Reference value :  4.80000e-09 Reference value :  9.60000e-09 Reference value :  1.47685e-08 Reference value :  1.94898e-08 Reference value :  2.31437e-08 Reference value :  2.70726e-08 Reference value :  3.20547e-08 Reference value :  3.77282e-08 Reference value :  4.63987e-08 Reference value :  5.58006e-08 Reference value :  6.47680e-08 Reference value :  7.10043e-08 Reference value :  7.66911e-08 Reference value :  8.25403e-08 Reference value :  8.85467e-08 Reference value :  9.45851e-08 Reference value :  1.01212e-07 Reference value :  1.08397e-07 Reference value :  1.16602e-07 Reference value :  1.21934e-07 Reference value :  1.26906e-07 Reference value :  1.31691e-07 Reference value :  1.36679e-07 Reference value :  1.41625e-07 Reference value :  1.47061e-07 Reference value :  1.53057e-07 Reference value :  1.60003e-07 Reference value :  1.68385e-07 Reference value :  1.78659e-07 Reference value :  1.90388e-07 Reference value :  1.99336e-07 Reference value :  2.06771e-07 Reference value :  2.13208e-07 Reference value :  2.19898e-07 Reference value :  2.28924e-07 Reference value :  2.40755e-07 Reference value :  2.60576e-07 Reference value :  2.90370e-07 Reference value :  3.32134e-07 Reference value :  3.70711e-07 Reference value :  3.91851e-07 Reference value :  4.16429e-07 Reference value :  4.39676e-07 Reference value :  4.53449e-07 Reference value :  4.68889e-07 Reference value :  4.83647e-07 Reference value :  4.92230e-07 Reference value :  5.02319e-07 Reference value :  5.11497e-07 Reference value :  5.18390e-07 Reference value :  5.24554e-07 Reference value :  5.30898e-07 Reference value :  5.37306e-07 Reference value :  5.45977e-07 Reference value :  5.55533e-07 Reference value :  5.66372e-07 Reference value :  5.73788e-07 Reference value :  5.81927e-07 Reference value :  5.92229e-07 Reference value :  6.03332e-07 Reference value :  6.15702e-07 Reference value :  6.24049e-07 Reference value :  6.32131e-07 Reference value :  6.41536e-07 Reference value :  6.51174e-07 Reference value :  6.63431e-07 Reference value :  6.77761e-07 Reference value :  6.88634e-07 Reference value :  7.00006e-07 Reference value :  7.12357e-07 Reference value :  7.25365e-07 Reference value :  7.48568e-07 Reference value :  7.72728e-07 Reference value :  8.09698e-07 Reference value :  8.51604e-07 Reference value :  8.79190e-07 Reference value :  9.04014e-07 Reference value :  9.28150e-07 Reference value :  9.39768e-07 Reference value :  9.54041e-07 Reference value :  9.70405e-07 Reference value :  9.82490e-07 Reference value :  9.93982e-07 Reference value :  1.00275e-06 Reference value :  1.01201e-06 Reference value :  1.02090e-06 Reference value :  1.02582e-06 Reference value :  1.03175e-06 Reference value :  1.03647e-06 Reference value :  1.04127e-06 Reference value :  1.04639e-06 Reference value :  1.05170e-06 Reference value :  1.05809e-06 Reference value :  1.06456e-06 Reference value :  1.06933e-06 Reference value :  1.07450e-06 Reference value :  1.08103e-06 Reference value :  1.08826e-06 Reference value :  1.09984e-06 Reference value :  1.10933e-06 Reference value :  1.11815e-06 Reference value :  1.12419e-06 Reference value :  1.13074e-06 Reference value :  1.13735e-06 Reference value :  1.14742e-06 Reference value :  1.16024e-06 Reference value :  1.18081e-06 Reference value :  1.19966e-06 Reference value :  1.21282e-06 Reference value :  1.22630e-06 Reference value :  1.24028e-06 Reference value :  1.25509e-06 Reference value :  1.27435e-06 Reference value :  1.29750e-06 Reference value :  1.32745e-06 Reference value :  1.35719e-06 Reference value :  1.37678e-06 Reference value :  1.39810e-06 Reference value :  1.41928e-06 Reference value :  1.43114e-06 Reference value :  1.44113e-06 Reference value :  1.45164e-06 Reference value :  1.46363e-06 Reference value :  1.47842e-06 Reference value :  1.48648e-06 Reference value :  1.49588e-06 Reference value :  1.50562e-06 Reference value :  1.51572e-06 Reference value :  1.52238e-06 Reference value :  1.52983e-06 Reference value :  1.53788e-06 Reference value :  1.54640e-06 Reference value :  1.55587e-06 Reference value :  1.56724e-06 Reference value :  1.57571e-06 Reference value :  1.58384e-06 Reference value :  1.59470e-06 Reference value :  1.60664e-06 Reference value :  1.62115e-06 Reference value :  1.63083e-06 Reference value :  1.64070e-06 Reference value :  1.65427e-06 Reference value :  1.66740e-06 Reference value :  1.68545e-06 Reference value :  1.69863e-06 Reference value :  1.71259e-06 Reference value :  1.73197e-06 Reference value :  1.75754e-06 Reference value :  1.79486e-06 Reference value :  1.83931e-06 Reference value :  1.89458e-06 Reference value :  1.92469e-06 Reference value :  1.94552e-06 Reference value :  1.96588e-06 Reference value :  1.98020e-06 Reference value :  1.99023e-06 Reference value :  2.00139e-06 Reference value :  2.01262e-06 Reference value :  2.02374e-06 Reference value :  2.03068e-06 Reference value :  2.03774e-06 Reference value :  2.04655e-06 Reference value :  2.05556e-06 Reference value :  2.06495e-06 Reference value :  2.07125e-06 Reference value :  2.07710e-06 Reference value :  2.08410e-06 Reference value :  2.09068e-06 Reference value :  2.09792e-06 Reference value :  2.10582e-06 Reference value :  2.11452e-06 Reference value :  2.12012e-06 Reference value :  2.12666e-06 Reference value :  2.13269e-06 Reference value :  2.13820e-06 Reference value :  2.14502e-06 Reference value :  2.15320e-06 Reference value :  2.16442e-06 Reference value :  2.18140e-06 Reference value :  2.20068e-06 Reference value :  2.21353e-06 Reference value :  2.22731e-06 Reference value :  2.24474e-06 Reference value :  2.26158e-06 Reference value :  2.28829e-06 Reference value :  2.32244e-06 Reference value :  2.35944e-06 Reference value :  2.38443e-06 Reference value :  2.41050e-06 Reference value :  2.44157e-06 Reference value :  2.44563e-06 Reference value :  2.45374e-06 Reference value :  2.46492e-06 Reference value :  2.46642e-06 Reference value :  2.46943e-06 Reference value :  2.47301e-06 Reference value :  2.47646e-06 Reference value :  2.47915e-06 Reference value :  2.48205e-06 Reference value :  2.48580e-06 Reference value :  2.49082e-06 Reference value :  2.49648e-06 Reference value :  2.50654e-06 Reference value :  2.51671e-06 Reference value :  2.52360e-06 Reference value :  2.53079e-06 Reference value :  2.54037e-06 Reference value :  2.54900e-06 Reference value :  2.55879e-06 Reference value :  2.56560e-06 Reference value :  2.57203e-06 Reference value :  2.57899e-06 Reference value :  2.58547e-06 Reference value :  2.59523e-06 Reference value :  2.60568e-06 Reference value :  2.61837e-06 Reference value :  2.62652e-06 Reference value :  2.63522e-06 Reference value :  2.64691e-06 Reference value :  2.65791e-06 Reference value :  2.67337e-06 Reference value :  2.68464e-06 Reference value :  2.69667e-06 Reference value :  2.71034e-06 Reference value :  2.72442e-06 Reference value :  2.74934e-06 Reference value :  2.77553e-06 Reference value :  2.81475e-06 Reference value :  2.84933e-06 Reference value :  2.87512e-06 Reference value :  2.89961e-06 Reference value :  2.92251e-06 Reference value :  2.93595e-06 Reference value :  2.95046e-06 Reference value :  2.96717e-06 Reference value :  2.97828e-06 Reference value :  2.98794e-06 Reference value :  2.99809e-06 Reference value :  3.00000e-06
No. of Data Rows : 244
Note: Simulation executed from .control section 


Note: No compatibility mode selected!


Circuit: ** sch_path: /home/bmott/ttsky25b_tiny_chaos/xsch/tb/adc/tt_um_3bit_flash_adc_tran_corners.sch

Doing analysis at TEMP = 27.000000 and TNOM = 27.000000

Using SPARSE 1.3 as Direct Linear Solver

Initial Transient Solution
--------------------------

Node                                   Voltage
----                                   -------
x1.x2.latch_left                         0.625
x1.ref0                              0.0708174
x1.x2.tail                            0.668258
vdd                                    1.79985
x1.x2.latch_right                  3.84638e-05
vin                                        0.5
x1.bias_p                              1.12716
x1.d0                                  1.79985
x1.x2.out_left                         1.06187
x1.x3.latch_left                      0.624368
x1.ref1                               0.213688
x1.x3.tail                            0.751696
x1.x3.latch_right                  0.000564249
x1.d1                                  1.79985
x1.x3.out_left                          1.0584
x1.x4.latch_left                      0.610423
x1.ref2                               0.367556
x1.x4.tail                            0.853852
x1.x4.latch_right                    0.0130489
x1.d2                                  1.79985
x1.x4.out_left                         1.07423
x1.x5.latch_left                      0.303486
x1.ref3                               0.507467
x1.x5.tail                            0.925845
x1.x5.latch_right                     0.564328
x1.d3                              0.000429026
x1.x5.out_left                         1.50977
x1.x6.latch_left                    0.00996252
x1.ref4                               0.643226
x1.x6.tail                              0.9609
x1.x6.latch_right                     0.605899
x1.d4                              2.50179e-07
x1.x6.out_left                         1.78861
x1.x7.latch_left                   0.000277206
x1.ref5                               0.788058
x1.x7.tail                            0.972925
x1.x7.latch_right                     0.625774
x1.d5                              2.57597e-07
x1.x7.out_left                         1.79039
x1.x8.latch_left                   4.09977e-06
x1.ref6                               0.928898
x1.x8.tail                            0.973262
x1.x8.latch_right                      0.62717
x1.d6                              2.71859e-07
x1.x8.out_left                         1.78953
x1.x9.bias_1                          0.998584
x1.x9.xr_bias_1.x0.t1                 0.999456
x1.x9.xr_bias_1.x0.t2                  1.12621
x1.bias_n                             0.604742
x1.x9.bias_2                          0.866838
x1.x9.xr_bias_2.x0.t1                 0.867654
x1.x9.xr_bias_2.x0.t2                 0.997665
x1.x9.bias_3                          0.738763
x1.x9.xr_bias_3.x0.t1                 0.739669
x1.x9.xr_bias_3.x0.t2                 0.865994
x1.x9.xr_bias_4.x0.t1                   0.6056
x1.x9.xr_bias_4.x0.t2                 0.737919
x1.x1.y2                            3.7034e-07
x1.x1.x3                            3.7034e-07
x1.x1.x1.net1                          1.79985
x1.x1.x6                            1.0485e-06
x1.x1.net2                             1.79984
x1.x1.x2                               1.79985
x1.x1.x2.net1                          1.79985
x1.x1.x5                           9.47248e-07
x1.x1.y1                               1.79985
x1.x1.x1                               1.79985
x1.x1.x3.net1                          1.79985
x1.x1.x4                            1.0036e-06
x1.x1.net1                             1.79984
x1.x1.x0                               1.79985
x1.x1.x4.net1                        3.857e-07
x1.x1.y0                               1.79984
x1.x1.x5.net1                      3.74176e-07
x1.x1.x6.net1                      4.35856e-07
x1.x1.x7.net1                      4.73896e-07
x1.x1.x8.net1                          1.79985
x1.x1.x9.net1                          1.79985
x1.x1.x10.net1                         1.79985
x1.x1.x11.net1                         1.79985
x1.x1.x12.net1                     5.72375e-07
d0                                     1.79985
x1.x1.x13.net1                     5.14232e-07
d1                                     1.79985
x1.x1.x14.net1                         1.79985
d2                                 3.81935e-07
x1.xr12.x0.t1                         0.931209
x1.xr12.x0.t2                          0.99766
vref                                  0.999933
x1.xr1.x0.t1                            0.7928
x1.xr1.x0.t2                          0.924171
x1.xr2.x0.t1                            0.6478
x1.xr2.x0.t2                          0.783541
x1.xr3.x0.t1                          0.511862
x1.xr3.x0.t2                          0.638805
x1.xr4.x0.t1                          0.371882
x1.xr4.x0.t2                          0.503049
x1.xr5.x0.t1                          0.218159
x1.xr5.x0.t2                          0.363351
x1.xr6.x0.t1                         0.0753259
x1.xr6.x0.t2                          0.209187
x1.xr7.x0.t1                         0.0021918
x1.xr7.x0.t2                         0.0683805
x1.xr8.x0.t1                        0.00218743
x1.xr8.x0.t2                          0.068578
x1.xr9.x0.t1                          0.931217
x1.xr9.x0.t2                          0.997647
net1                                       0.5
net2                                         1
vout                                     0.375
e1_int1                                  0.375
net3                                       1.8
be1#branch                                   0
e1#branch                                    0
v3#branch                         -0.000152934
v2#branch                         -6.71408e-05
v1#branch                                    0

[...]
x1.ref1                               0.218155
x1.x3.tail                            0.751986
x1.x3.latch_right                   0.00055434
x1.d1                                  1.79984
x1.x3.out_left                         1.05029
x1.x4.latch_left                      0.617005
x1.ref2                               0.358554
x1.x4.tail                            0.848378
x1.x4.latch_right                     0.011736
x1.d2                                  1.79984
x1.x4.out_left                          1.0737
x1.x5.latch_left                      0.294438
x1.ref3                               0.504213
x1.x5.tail                            0.927375
x1.x5.latch_right                     0.568455
x1.d3                              0.000291327
x1.x5.out_left                          1.5302
x1.x6.latch_left                     0.0070282
x1.ref4                                0.65186
x1.x6.tail                            0.964496
x1.x6.latch_right                     0.622883
x1.d4                              2.54178e-07
x1.x6.out_left                         1.78937
x1.x7.latch_left                   0.000237088
x1.ref5                               0.787289
x1.x7.tail                            0.969135
x1.x7.latch_right                     0.625502
x1.d5                              2.22952e-07
x1.x7.out_left                         1.79178
x1.x8.latch_left                   4.22558e-06
x1.ref6                               0.930863
x1.x8.tail                            0.973733
x1.x8.latch_right                     0.632397
x1.d6                               2.6829e-07
x1.x8.out_left                         1.79081
x1.x9.bias_1                          0.996916
x1.x9.xr_bias_1.x0.t1                 0.997709
x1.x9.xr_bias_1.x0.t2                   1.1242
x1.bias_n                             0.608733
x1.x9.bias_2                          0.867465
x1.x9.xr_bias_2.x0.t1                 0.868334
x1.x9.xr_bias_2.x0.t2                 0.996028
x1.x9.bias_3                          0.737788
x1.x9.xr_bias_3.x0.t1                 0.738609
x1.x9.xr_bias_3.x0.t2                 0.866608
x1.x9.xr_bias_4.x0.t1                  0.60965
x1.x9.xr_bias_4.x0.t2                 0.737017
x1.x1.y2                           3.91957e-07
x1.x1.x3                           3.91957e-07
x1.x1.x1.net1                          1.79984
x1.x1.x6                            7.6982e-07
x1.x1.net2                             1.79984
x1.x1.x2                               1.79984
x1.x1.x2.net1                          1.79984
x1.x1.x5                           7.01256e-07
x1.x1.y1                               1.79984
x1.x1.x1                               1.79984
x1.x1.x3.net1                          1.79984
x1.x1.x4                           6.61092e-07
x1.x1.net1                             1.79984
x1.x1.x0                               1.79984
x1.x1.x4.net1                      3.53197e-07
x1.x1.y0                               1.79984
x1.x1.x5.net1                      3.86181e-07
x1.x1.x6.net1                       5.2065e-07
x1.x1.x7.net1                      3.60895e-07
x1.x1.x8.net1                          1.79984
x1.x1.x9.net1                          1.79984
x1.x1.x10.net1                         1.79984
x1.x1.x11.net1                         1.79984
x1.x1.x12.net1                     5.15615e-07
d0                                     1.79984
x1.x1.x13.net1                     4.37302e-07
d1                                     1.79984
x1.x1.x14.net1                         1.79984
d2                                 4.26111e-07
x1.xr12.x0.t1                         0.933056
x1.xr12.x0.t2                         0.997878
vref                                  0.999933
x1.xr1.x0.t1                          0.791811
x1.xr1.x0.t2                          0.926384
x1.xr2.x0.t1                          0.656173
x1.xr2.x0.t2                          0.782355
x1.xr3.x0.t1                          0.508813
x1.xr3.x0.t2                          0.647201
x1.xr4.x0.t1                           0.36313
x1.xr4.x0.t2                          0.499389
x1.xr5.x0.t1                          0.222743
x1.xr5.x0.t2                          0.354026
x1.xr6.x0.t1                         0.0753278
x1.xr6.x0.t2                          0.213327
x1.xr7.x0.t1                         0.0022483
x1.xr7.x0.t2                         0.0688153
x1.xr8.x0.t1                        0.00240959
x1.xr8.x0.t2                         0.0686969
x1.xr9.x0.t1                          0.933238
x1.xr9.x0.t2                          0.997521
net1                                       0.5
net2                                         1
vout                                     0.375
e1_int1                                  0.375
net3                                       1.8
be1#branch                                   0
e1#branch                                    0
v3#branch                          -0.00015751
v2#branch                         -6.71827e-05
v1#branch                                    0

 Reference value :  0.00000e+00 Reference value :  3.00000e-10 Reference value :  1.20000e-09 Reference value :  4.80000e-09 Reference value :  9.60000e-09 Reference value :  1.52783e-08 Reference value :  2.17400e-08 Reference value :  2.58907e-08 Reference value :  3.04804e-08 Reference value :  3.43409e-08 Reference value :  3.84800e-08 Reference value :  4.28245e-08 Reference value :  4.76535e-08 Reference value :  5.35394e-08 Reference value :  6.07372e-08 Reference value :  6.86940e-08 Reference value :  7.44175e-08 Reference value :  7.99045e-08 Reference value :  8.40387e-08 Reference value :  8.84152e-08 Reference value :  9.32380e-08 Reference value :  9.88797e-08 Reference value :  1.06752e-07 Reference value :  1.14933e-07 Reference value :  1.23365e-07 Reference value :  1.29017e-07 Reference value :  1.34741e-07 Reference value :  1.42674e-07 Reference value :  1.51359e-07 Reference value :  1.61216e-07 Reference value :  1.73018e-07 Reference value :  1.86544e-07 Reference value :  1.98805e-07 Reference value :  2.07535e-07 Reference value :  2.16671e-07 Reference value :  2.25205e-07 Reference value :  2.39579e-07 Reference value :  2.55326e-07 Reference value :  2.77514e-07 Reference value :  3.07302e-07 Reference value :  3.36070e-07 Reference value :  3.59140e-07 Reference value :  3.73895e-07 Reference value :  3.90379e-07 Reference value :  4.09846e-07 Reference value :  4.27408e-07 Reference value :  4.38350e-07 Reference value :  4.50106e-07 Reference value :  4.63669e-07 Reference value :  4.72642e-07 Reference value :  4.80970e-07 Reference value :  4.89540e-07 Reference value :  4.99608e-07 Reference value :  5.01338e-07 Reference value :  5.04798e-07 Reference value :  5.09475e-07 Reference value :  5.14589e-07 Reference value :  5.18496e-07 Reference value :  5.22663e-07 Reference value :  5.28213e-07 Reference value :  5.34107e-07 Reference value :  5.42565e-07 Reference value :  5.53002e-07 Reference value :  5.64981e-07 Reference value :  5.72972e-07 Reference value :  5.80678e-07 Reference value :  5.89721e-07 Reference value :  5.99396e-07 Reference value :  6.10300e-07 Reference value :  6.17736e-07 Reference value :  6.24759e-07 Reference value :  6.31935e-07 Reference value :  6.39651e-07 Reference value :  6.49543e-07 Reference value :  6.61027e-07 Reference value :  6.76005e-07 Reference value :  6.91365e-07 Reference value :  7.04066e-07 Reference value :  7.17410e-07 Reference value :  7.34777e-07 Reference value :  7.61338e-07 Reference value :  7.93341e-07 Reference value :  8.25303e-07 Reference value :  8.61870e-07 Reference value :  8.86302e-07 Reference value :  9.11238e-07 Reference value :  9.34315e-07 Reference value :  9.47275e-07 Reference value :  9.62026e-07 Reference value :  9.73606e-07 Reference value :  9.81198e-07 Reference value :  9.89641e-07 Reference value :  9.98004e-07 Reference value :  1.00663e-06 Reference value :  1.01628e-06 Reference value :  1.02610e-06 Reference value :  1.03296e-06 Reference value :  1.04024e-06 Reference value :  1.04775e-06 Reference value :  1.05933e-06 Reference value :  1.06110e-06 Reference value :  1.06465e-06 Reference value :  1.06851e-06 Reference value :  1.07120e-06 Reference value :  1.07398e-06 Reference value :  1.07607e-06 Reference value :  1.07833e-06 Reference value :  1.08084e-06 Reference value :  1.08382e-06 Reference value :  1.08792e-06 Reference value :  1.09398e-06 Reference value :  1.10328e-06 Reference value :  1.11265e-06 Reference value :  1.12243e-06 Reference value :  1.12895e-06 Reference value :  1.13504e-06 Reference value :  1.14134e-06 Reference value :  1.14786e-06 Reference value :  1.15463e-06 Reference value :  1.16211e-06 Reference value :  1.17040e-06 Reference value :  1.18005e-06 Reference value :  1.19030e-06 Reference value :  1.19758e-06 Reference value :  1.20468e-06 Reference value :  1.21028e-06 Reference value :  1.21609e-06 Reference value :  1.22223e-06 Reference value :  1.22913e-06 Reference value :  1.23793e-06 Reference value :  1.24924e-06 Reference value :  1.26691e-06 Reference value :  1.29312e-06 Reference value :  1.33134e-06 Reference value :  1.37429e-06 Reference value :  1.39667e-06 Reference value :  1.42284e-06 Reference value :  1.43763e-06 Reference value :  1.45498e-06 Reference value :  1.45739e-06 Reference value :  1.46222e-06 Reference value :  1.46598e-06 Reference value :  1.46908e-06 Reference value :  1.47243e-06 Reference value :  1.47652e-06 Reference value :  1.48153e-06 Reference value :  1.48762e-06 Reference value :  1.49710e-06 Reference value :  1.50741e-06 Reference value :  1.51812e-06 Reference value :  1.52553e-06 Reference value :  1.53301e-06 Reference value :  1.54242e-06 Reference value :  1.55203e-06 Reference value :  1.56280e-06 Reference value :  1.57015e-06 Reference value :  1.57700e-06 Reference value :  1.58534e-06 Reference value :  1.59321e-06 Reference value :  1.60370e-06 Reference value :  1.61541e-06 Reference value :  1.62328e-06 Reference value :  1.63147e-06 Reference value :  1.64250e-06 Reference value :  1.65292e-06 Reference value :  1.66733e-06 Reference value :  1.68385e-06 Reference value :  1.69631e-06 Reference value :  1.70941e-06 Reference value :  1.72383e-06 Reference value :  1.73894e-06 Reference value :  1.76587e-06 Reference value :  1.79387e-06 Reference value :  1.83633e-06 Reference value :  1.88269e-06 Reference value :  1.91333e-06 Reference value :  1.94111e-06 Reference value :  1.95951e-06 Reference value :  1.97655e-06 Reference value :  1.98643e-06 Reference value :  1.99829e-06 Reference value :  2.01184e-06 Reference value :  2.02455e-06 Reference value :  2.03258e-06 Reference value :  2.03998e-06 Reference value :  2.04593e-06 Reference value :  2.05240e-06 Reference value :  2.05863e-06 Reference value :  2.06552e-06 Reference value :  2.07287e-06 Reference value :  2.07807e-06 Reference value :  2.08313e-06 Reference value :  2.09071e-06 Reference value :  2.09759e-06 Reference value :  2.10663e-06 Reference value :  2.11670e-06 Reference value :  2.12397e-06 Reference value :  2.13099e-06 Reference value :  2.13647e-06 Reference value :  2.14222e-06 Reference value :  2.14865e-06 Reference value :  2.15607e-06 Reference value :  2.16628e-06 Reference value :  2.18179e-06 Reference value :  2.19691e-06 Reference value :  2.20776e-06 Reference value :  2.21787e-06 Reference value :  2.22757e-06 Reference value :  2.23766e-06 Reference value :  2.24811e-06 Reference value :  2.25956e-06 Reference value :  2.27230e-06 Reference value :  2.28679e-06 Reference value :  2.30368e-06 Reference value :  2.32355e-06 Reference value :  2.34787e-06 Reference value :  2.36988e-06 Reference value :  2.38314e-06 Reference value :  2.39807e-06 Reference value :  2.41414e-06 Reference value :  2.42889e-06 Reference value :  2.43947e-06 Reference value :  2.44948e-06 Reference value :  2.46060e-06 Reference value :  2.47267e-06 Reference value :  2.48042e-06 Reference value :  2.48886e-06 Reference value :  2.49906e-06 Reference value :  2.50829e-06 Reference value :  2.51863e-06 Reference value :  2.52518e-06 Reference value :  2.53272e-06 Reference value :  2.54188e-06 Reference value :  2.55152e-06 Reference value :  2.56479e-06 Reference value :  2.57237e-06 Reference value :  2.58125e-06 Reference value :  2.59071e-06 Reference value :  2.60058e-06 Reference value :  2.61057e-06 Reference value :  2.61746e-06 Reference value :  2.62495e-06 Reference value :  2.63213e-06 Reference value :  2.63977e-06 Reference value :  2.64977e-06 Reference value :  2.66087e-06 Reference value :  2.67551e-06 Reference value :  2.69125e-06 Reference value :  2.70365e-06 Reference value :  2.71678e-06 Reference value :  2.73403e-06 Reference value :  2.75917e-06 Reference value :  2.79524e-06 Reference value :  2.83196e-06 Reference value :  2.87246e-06 Reference value :  2.90361e-06 Reference value :  2.93681e-06 Reference value :  2.95224e-06 Reference value :  2.97048e-06 Reference value :  2.98161e-06 Reference value :  2.99460e-06 Reference value :  3.00000e-06
No. of Data Rows : 264
Note: Simulation executed from .control section 


Note: No compatibility mode selected!


Circuit: ** sch_path: /home/bmott/ttsky25b_tiny_chaos/xsch/tb/adc/tt_um_3bit_flash_adc_tran_corners.sch

Doing analysis at TEMP = 27.000000 and TNOM = 27.000000

Using SPARSE 1.3 as Direct Linear Solver

Initial Transient Solution
--------------------------

Node                                   Voltage
----                                   -------
x1.x2.latch_left                      0.628213
x1.ref0                              0.0718203
x1.x2.tail                            0.670465
vdd                                    1.79985
x1.x2.latch_right                  3.25445e-05
vin                                        0.5
x1.bias_p                              1.12898
x1.d0                                  1.79985
x1.x2.out_left                         1.05031
x1.x3.latch_left                      0.617192
x1.ref1                               0.221125
x1.x3.tail                            0.749495
x1.x3.latch_right                  0.000589852
x1.d1                                  1.79985
x1.x3.out_left                          1.0699
x1.x4.latch_left                      0.609379
x1.ref2                               0.365684
x1.x4.tail                            0.853336
x1.x4.latch_right                    0.0148479
x1.d2                                  1.79985
x1.x4.out_left                         1.07549
x1.x5.latch_left                      0.436658
x1.ref3                               0.504325
x1.x5.tail                            0.930075
x1.x5.latch_right                     0.560479
x1.d3                                0.0107358
x1.x5.out_left                         1.33357
x1.x6.latch_left                    0.00985153
x1.ref4                               0.647252
x1.x6.tail                            0.963955
x1.x6.latch_right                     0.608119
x1.d4                              3.07625e-07
x1.x6.out_left                         1.78915
x1.x7.latch_left                   0.000259961
x1.ref5                                0.78548
x1.x7.tail                            0.968043
x1.x7.latch_right                     0.621441
x1.d5                              2.34319e-07
x1.x7.out_left                         1.79001
x1.x8.latch_left                   4.04641e-06
x1.ref6                               0.928752
x1.x8.tail                            0.968024
x1.x8.latch_right                     0.620014
x1.d6                              2.47457e-07
x1.x8.out_left                         1.79121
x1.x9.bias_1                          0.996129
x1.x9.xr_bias_1.x0.t1                  0.99698
x1.x9.xr_bias_1.x0.t2                  1.12814
x1.bias_n                              0.60084
x1.x9.bias_2                          0.863128
x1.x9.xr_bias_2.x0.t1                    0.864
x1.x9.xr_bias_2.x0.t2                 0.995228
x1.x9.bias_3                          0.730954
x1.x9.xr_bias_3.x0.t1                 0.731811
x1.x9.xr_bias_3.x0.t2                 0.862287
x1.x9.xr_bias_4.x0.t1                 0.601644
x1.x9.xr_bias_4.x0.t2                 0.730007
x1.x1.y2                            4.6614e-07
x1.x1.x3                            4.6614e-07
x1.x1.x1.net1                          1.79985
x1.x1.x6                           1.02262e-06
x1.x1.net2                             1.79985
x1.x1.x2                               1.79985
x1.x1.x2.net1                          1.79985
x1.x1.x5                           7.39761e-07
x1.x1.y1                               1.79985
x1.x1.x1                               1.79985
x1.x1.x3.net1                          1.79985
x1.x1.x4                           9.52926e-07
x1.x1.net1                             1.79985
x1.x1.x0                               1.79985
x1.x1.x4.net1                      3.76989e-07
x1.x1.y0                               1.79985
x1.x1.x5.net1                      4.27294e-07
x1.x1.x6.net1                      3.58933e-07
x1.x1.x7.net1                      4.56767e-07
x1.x1.x8.net1                          1.79985
x1.x1.x9.net1                          1.79985
x1.x1.x10.net1                         1.79985
x1.x1.x11.net1                         1.79985
x1.x1.x12.net1                     4.24535e-07
d0                                     1.79985
x1.x1.x13.net1                     2.79604e-07
d1                                     1.79985
x1.x1.x14.net1                         1.79985
d2                                 3.67191e-07
x1.xr12.x0.t1                           0.9309
x1.xr12.x0.t2                         0.997657
vref                                  0.999933
x1.xr1.x0.t1                          0.790002
x1.xr1.x0.t2                          0.924689
x1.xr2.x0.t1                           0.65133
x1.xr2.x0.t2                          0.781336
x1.xr3.x0.t1                          0.508559
x1.xr3.x0.t2                          0.642647
x1.xr4.x0.t1                          0.370014
x1.xr4.x0.t2                          0.499648
x1.xr5.x0.t1                          0.225561
x1.xr5.x0.t2                          0.361233
x1.xr6.x0.t1                         0.0760985
x1.xr6.x0.t2                          0.216402
x1.xr7.x0.t1                        0.00221932
x1.xr7.x0.t2                         0.0695423
x1.xr8.x0.t1                        0.00267551
x1.xr8.x0.t2                         0.0694583
x1.xr9.x0.t1                          0.930937
x1.xr9.x0.t2                          0.997525
net1                                       0.5
net2                                         1
vout                                     0.375
e1_int1                                  0.375
net3                                       1.8
be1#branch                                   0
e1#branch                                    0
v3#branch                         -0.000151956
v2#branch                         -6.70829e-05
v1#branch                                    0

 Reference value :  0.00000e+00 Reference value :  5.91974e-08 Reference value :  2.90299e-07 Reference value :  5.40309e-07 Reference value :  9.27753e-07 Reference value :  1.08141e-06 Reference value :  1.26341e-06 Reference value :  1.46539e-06 Reference value :  1.56113e-06 Reference value :  1.90407e-06 Reference value :  2.05110e-06 Reference value :  2.12706e-06 Reference value :  2.38744e-06 Reference value :  2.51696e-06 Reference value :  2.65077e-06 Reference value :  2.93301e-06
No. of Data Rows : 256
Note: Simulation executed from .control section 

