
Note: No compatibility mode selected!


Circuit: ** sch_path: /home/bmott/ttsky25b_tiny_chaos/xsch/tb/adc/tt_um_3bit_flash_adc_dc_sweep.sch

Doing analysis at TEMP = 27.000000 and TNOM = 27.000000

Using SPARSE 1.3 as Direct Linear Solver
 Reference value :  0.00000e+00 Reference value :  1.90000e-01 Reference value :  4.60000e-01 Reference value :  5.10000e-01 Reference value :  6.50000e-01 Reference value :  7.90000e-01 Reference value :  9.70000e-01
No. of Data Rows : 101
Note: Simulation executed from .control section 

Note: No compatibility mode selected!


Circuit: ** sch_path: /home/bmott/ttsky25b_tiny_chaos/xsch/tb/adc/tt_um_3bit_flash_adc_dc_sweep.sch

Doing analysis at TEMP = 27.000000 and TNOM = 27.000000

Using SPARSE 1.3 as Direct Linear Solver
 Reference value :  0.00000e+00 Reference value :  1.00000e-01 Reference value :  2.20000e-01 Reference value :  3.60000e-01 Reference value :  5.00000e-01 Reference value :  6.50000e-01 Reference value :  7.90000e-01 Reference value :  1.00000e+00
No. of Data Rows : 101
Note: Simulation executed from .control section 

Note: No compatibility mode selected!


Circuit: ** sch_path: /home/bmott/ttsky25b_tiny_chaos/xsch/tb/adc/tt_um_3bit_flash_adc_dc_sweep.sch

Doing analysis at TEMP = 27.000000 and TNOM = 27.000000

Using SPARSE 1.3 as Direct Linear Solver
 Reference value :  0.00000e+00 Reference value :  1.00000e-02 Reference value :  6.00000e-02 Reference value :  1.70000e-01 Reference value :  2.60000e-01 Reference value :  3.90000e-01 Reference value :  5.10000e-01 Reference value :  6.40000e-01 Reference value :  7.70000e-01 Reference value :  8.80000e-01
No. of Data Rows : 101
Note: Simulation executed from .control section 

Note: No compatibility mode selected!


Circuit: ** sch_path: /home/bmott/ttsky25b_tiny_chaos/xsch/tb/adc/tt_um_3bit_flash_adc_dc_sweep.sch

Doing analysis at TEMP = 27.000000 and TNOM = 27.000000

Using SPARSE 1.3 as Direct Linear Solver
 Reference value :  0.00000e+00 Reference value :  7.00000e-02 Reference value :  1.90000e-01 Reference value :  2.20000e-01 Reference value :  3.60000e-01 Reference value :  5.70000e-01 Reference value :  6.50000e-01 Reference value :  7.90000e-01 Reference value :  1.00000e+00
No. of Data Rows : 101
Note: Simulation executed from .control section 

Note: No compatibility mode selected!


Circuit: ** sch_path: /home/bmott/ttsky25b_tiny_chaos/xsch/tb/adc/tt_um_3bit_flash_adc_dc_sweep.sch

Doing analysis at TEMP = 27.000000 and TNOM = 27.000000

Using SPARSE 1.3 as Direct Linear Solver
 Reference value :  0.00000e+00 Reference value :  8.00000e-02 Reference value :  2.30000e-01 Reference value :  4.80000e-01 Reference value :  6.20000e-01 Reference value :  7.20000e-01 Reference value :  7.90000e-01 Reference value :  9.40000e-01
No. of Data Rows : 101
Note: Simulation executed from .control section 
