
Note: No compatibility mode selected!


Circuit: ** sch_path: /home/bmott/ttsky25b_tiny_chaos/xsch/tb/adc/tt_um_3bit_flash_adc_dc_corners.sch

Doing analysis at TEMP = 27.000000 and TNOM = 27.000000

Using SPARSE 1.3 as Direct Linear Solver
 Reference value :  0.00000e+00 Reference value :  1.50000e-01 Reference value :  3.50000e-01 Reference value :  5.10000e-01 Reference value :  7.60000e-01 Reference value :  9.40000e-01
No. of Data Rows : 101
Note: Simulation executed from .control section 

Note: No compatibility mode selected!


Circuit: ** sch_path: /home/bmott/ttsky25b_tiny_chaos/xsch/tb/adc/tt_um_3bit_flash_adc_dc_corners.sch

Doing analysis at TEMP = 27.000000 and TNOM = 27.000000

Using SPARSE 1.3 as Direct Linear Solver
 Reference value :  0.00000e+00 Reference value :  3.40000e-01 Reference value :  3.60000e-01 Reference value :  7.80000e-01 Reference value :  8.80000e-01
No. of Data Rows : 101
Note: Simulation executed from .control section 

Note: No compatibility mode selected!


Circuit: ** sch_path: /home/bmott/ttsky25b_tiny_chaos/xsch/tb/adc/tt_um_3bit_flash_adc_dc_corners.sch

Doing analysis at TEMP = 27.000000 and TNOM = 27.000000

Using SPARSE 1.3 as Direct Linear Solver
 Reference value :  0.00000e+00 Reference value :  5.20000e-01 Reference value :  9.40000e-01
No. of Data Rows : 101
Note: Simulation executed from .control section 

Note: No compatibility mode selected!


Circuit: ** sch_path: /home/bmott/ttsky25b_tiny_chaos/xsch/tb/adc/tt_um_3bit_flash_adc_dc_corners.sch

Doing analysis at TEMP = 27.000000 and TNOM = 27.000000

Using SPARSE 1.3 as Direct Linear Solver
 Reference value :  0.00000e+00 Reference value :  2.20000e-01 Reference value :  5.10000e-01 Reference value :  7.90000e-01
No. of Data Rows : 101
Note: Simulation executed from .control section 

Note: No compatibility mode selected!


Circuit: ** sch_path: /home/bmott/ttsky25b_tiny_chaos/xsch/tb/adc/tt_um_3bit_flash_adc_dc_corners.sch

Doing analysis at TEMP = 27.000000 and TNOM = 27.000000

Using SPARSE 1.3 as Direct Linear Solver
 Reference value :  0.00000e+00 Reference value :  5.30000e-01 Reference value :  7.90000e-01
No. of Data Rows : 101
Note: Simulation executed from .control section 
